*SPEF "ieee 1481-1999"
*DESIGN "manchester_baby"
*DATE "11:11:11 Fri 11 11, 1111"
*VENDOR "OpenRCX"
*PROGRAM "Parallel Extraction"
*VERSION "1.0"
*DESIGN_FLOW "NAME_SCOPE LOCAL" "PIN_CAP NONE"
*DIVIDER /
*DELIMITER :
*BUS_DELIMITER []
*T_UNIT 1 NS
*C_UNIT 1 PF
*R_UNIT 1 OHM
*L_UNIT 1 HENRY

*NAME_MAP
*3 clock
*4 clock_o
*5 ram_addr_o[0]
*6 ram_addr_o[1]
*7 ram_addr_o[2]
*8 ram_addr_o[3]
*9 ram_addr_o[4]
*10 ram_data_i[0]
*11 ram_data_i[10]
*12 ram_data_i[11]
*13 ram_data_i[12]
*14 ram_data_i[13]
*15 ram_data_i[14]
*16 ram_data_i[15]
*17 ram_data_i[16]
*18 ram_data_i[17]
*19 ram_data_i[18]
*20 ram_data_i[19]
*21 ram_data_i[1]
*22 ram_data_i[20]
*23 ram_data_i[21]
*24 ram_data_i[22]
*25 ram_data_i[23]
*26 ram_data_i[24]
*27 ram_data_i[25]
*28 ram_data_i[26]
*29 ram_data_i[27]
*30 ram_data_i[28]
*31 ram_data_i[29]
*32 ram_data_i[2]
*33 ram_data_i[30]
*34 ram_data_i[31]
*35 ram_data_i[3]
*36 ram_data_i[4]
*37 ram_data_i[5]
*38 ram_data_i[6]
*39 ram_data_i[7]
*40 ram_data_i[8]
*41 ram_data_i[9]
*42 ram_data_o[0]
*43 ram_data_o[10]
*44 ram_data_o[11]
*45 ram_data_o[12]
*46 ram_data_o[13]
*47 ram_data_o[14]
*48 ram_data_o[15]
*49 ram_data_o[16]
*50 ram_data_o[17]
*51 ram_data_o[18]
*52 ram_data_o[19]
*53 ram_data_o[1]
*54 ram_data_o[20]
*55 ram_data_o[21]
*56 ram_data_o[22]
*57 ram_data_o[23]
*58 ram_data_o[24]
*59 ram_data_o[25]
*60 ram_data_o[26]
*61 ram_data_o[27]
*62 ram_data_o[28]
*63 ram_data_o[29]
*64 ram_data_o[2]
*65 ram_data_o[30]
*66 ram_data_o[31]
*67 ram_data_o[3]
*68 ram_data_o[4]
*69 ram_data_o[5]
*70 ram_data_o[6]
*71 ram_data_o[7]
*72 ram_data_o[8]
*73 ram_data_o[9]
*74 ram_rw_en_o
*75 reset_i
*76 stop_lamp_o
*77 _0000_
*78 _0001_
*79 _0002_
*80 _0003_
*81 _0004_
*82 _0005_
*83 _0006_
*84 _0007_
*85 _0008_
*86 _0009_
*87 _0010_
*88 _0011_
*89 _0012_
*90 _0013_
*91 _0014_
*92 _0015_
*93 _0016_
*94 _0017_
*95 _0018_
*96 _0019_
*97 _0020_
*98 _0021_
*99 _0022_
*100 _0023_
*101 _0024_
*102 _0025_
*103 _0026_
*104 _0027_
*105 _0028_
*106 _0029_
*107 _0030_
*108 _0031_
*109 _0032_
*110 _0033_
*111 _0034_
*112 _0035_
*113 _0036_
*114 _0037_
*115 _0038_
*116 _0039_
*117 _0040_
*118 _0041_
*119 _0042_
*120 _0043_
*121 _0044_
*122 _0045_
*123 _0046_
*124 _0047_
*125 _0048_
*126 _0049_
*127 _0050_
*128 _0051_
*129 _0052_
*130 _0053_
*131 _0054_
*132 _0055_
*133 _0056_
*134 _0057_
*135 _0058_
*136 _0059_
*137 _0060_
*138 _0061_
*139 _0062_
*140 _0063_
*141 _0064_
*142 _0065_
*143 _0066_
*144 _0067_
*145 _0068_
*146 _0069_
*147 _0070_
*148 _0071_
*149 _0072_
*150 _0073_
*151 _0074_
*152 _0075_
*153 _0076_
*154 _0077_
*155 _0078_
*156 _0079_
*157 _0080_
*158 _0081_
*159 _0082_
*160 _0083_
*161 _0084_
*162 _0085_
*163 _0086_
*164 _0087_
*165 _0088_
*166 _0089_
*167 _0090_
*168 _0091_
*169 _0092_
*170 _0093_
*171 _0094_
*172 _0095_
*173 _0096_
*174 _0097_
*175 _0098_
*176 _0099_
*177 _0100_
*178 _0101_
*179 _0102_
*180 _0103_
*181 _0104_
*182 _0105_
*183 _0106_
*184 _0107_
*185 _0108_
*186 _0109_
*187 _0110_
*188 _0111_
*189 _0112_
*190 _0113_
*191 _0114_
*192 _0115_
*193 _0116_
*194 _0117_
*195 _0118_
*196 _0119_
*197 _0120_
*198 _0121_
*199 _0122_
*200 _0123_
*201 _0124_
*202 _0125_
*203 _0126_
*204 _0127_
*205 _0128_
*206 _0129_
*207 _0130_
*208 _0131_
*209 _0132_
*210 _0133_
*211 _0134_
*212 _0135_
*213 _0136_
*214 _0137_
*215 _0138_
*216 _0139_
*217 _0140_
*218 _0141_
*219 _0142_
*220 _0143_
*221 _0144_
*222 _0145_
*223 _0146_
*224 _0147_
*225 _0148_
*226 _0149_
*227 _0150_
*228 _0151_
*229 _0152_
*230 _0153_
*231 _0154_
*232 _0155_
*233 _0156_
*234 _0157_
*235 _0158_
*236 _0159_
*237 _0160_
*238 _0161_
*239 _0162_
*240 _0163_
*241 _0164_
*242 _0165_
*243 _0166_
*244 _0167_
*245 _0168_
*246 _0169_
*247 _0170_
*248 _0171_
*249 _0172_
*250 _0173_
*251 _0174_
*252 _0175_
*253 _0176_
*254 _0177_
*255 _0178_
*256 _0179_
*257 _0180_
*258 _0181_
*259 _0182_
*260 _0183_
*261 _0184_
*262 _0185_
*263 _0186_
*264 _0187_
*265 _0188_
*266 _0189_
*267 _0190_
*268 _0191_
*269 _0192_
*270 _0193_
*271 _0194_
*272 _0195_
*273 _0196_
*274 _0197_
*275 _0198_
*276 _0199_
*277 _0200_
*278 _0201_
*279 _0202_
*280 _0203_
*281 _0204_
*282 _0205_
*283 _0206_
*284 _0207_
*285 _0208_
*286 _0209_
*287 _0210_
*288 _0211_
*289 _0212_
*290 _0213_
*291 _0214_
*292 _0215_
*293 _0216_
*294 _0217_
*295 _0218_
*296 _0219_
*297 _0220_
*298 _0221_
*299 _0222_
*300 _0223_
*301 _0224_
*302 _0225_
*303 _0226_
*304 _0227_
*305 _0228_
*306 _0229_
*307 _0230_
*308 _0231_
*309 _0232_
*310 _0233_
*311 _0234_
*312 _0235_
*313 _0236_
*314 _0237_
*315 _0238_
*316 _0239_
*317 _0240_
*318 _0241_
*319 _0242_
*320 _0243_
*321 _0244_
*322 _0245_
*323 _0246_
*324 _0247_
*325 _0248_
*326 _0249_
*327 _0250_
*328 _0251_
*329 _0252_
*330 _0253_
*331 _0254_
*332 _0255_
*333 _0256_
*334 _0257_
*335 _0258_
*336 _0259_
*337 _0260_
*338 _0261_
*339 _0262_
*340 _0263_
*341 _0264_
*342 _0265_
*343 _0266_
*344 _0267_
*345 _0268_
*346 _0269_
*347 _0270_
*348 _0271_
*349 _0272_
*350 _0273_
*351 _0274_
*352 _0275_
*353 _0276_
*354 _0277_
*355 _0278_
*356 _0279_
*357 _0280_
*358 _0281_
*359 _0282_
*360 _0283_
*361 _0284_
*362 _0285_
*363 _0286_
*364 _0287_
*365 _0288_
*366 _0289_
*367 _0290_
*368 _0291_
*369 _0292_
*370 _0293_
*371 _0294_
*372 _0295_
*373 _0296_
*374 _0297_
*375 _0298_
*376 _0299_
*377 _0300_
*378 _0301_
*379 _0302_
*380 _0303_
*381 _0304_
*382 _0305_
*383 _0306_
*384 _0307_
*385 _0308_
*386 _0309_
*387 _0310_
*388 _0311_
*389 _0312_
*390 _0313_
*391 _0314_
*392 _0315_
*393 _0316_
*394 _0317_
*395 _0318_
*396 _0319_
*397 _0320_
*398 _0321_
*399 _0322_
*400 _0323_
*401 _0324_
*402 _0325_
*403 _0326_
*404 _0327_
*405 _0328_
*406 _0329_
*407 _0330_
*408 _0331_
*409 _0332_
*410 _0333_
*411 _0334_
*412 _0335_
*413 _0336_
*414 _0337_
*415 _0338_
*416 _0339_
*417 _0340_
*418 _0341_
*419 _0342_
*420 _0343_
*421 _0344_
*422 _0345_
*423 _0346_
*424 _0347_
*425 _0348_
*426 _0349_
*427 _0350_
*428 _0351_
*429 _0352_
*430 _0353_
*431 _0354_
*432 _0355_
*433 _0356_
*434 _0357_
*435 _0358_
*436 _0359_
*437 _0360_
*438 _0361_
*439 _0362_
*440 _0363_
*441 _0364_
*442 _0365_
*443 _0366_
*444 _0367_
*445 _0368_
*446 _0369_
*447 _0370_
*448 _0371_
*449 _0372_
*450 _0373_
*451 _0374_
*452 _0375_
*453 _0376_
*454 _0377_
*455 _0378_
*456 _0379_
*457 _0380_
*458 _0381_
*459 _0382_
*460 _0383_
*461 _0384_
*462 _0385_
*463 _0386_
*464 _0387_
*465 _0388_
*466 _0389_
*467 _0390_
*468 _0391_
*469 _0392_
*470 _0393_
*471 _0394_
*472 _0395_
*473 _0396_
*474 _0397_
*475 _0398_
*476 _0399_
*477 _0400_
*478 _0401_
*479 _0402_
*480 _0403_
*481 _0404_
*482 _0405_
*483 _0406_
*484 _0407_
*485 _0408_
*486 _0409_
*487 _0410_
*488 _0411_
*489 _0412_
*490 _0413_
*491 _0414_
*492 _0415_
*493 _0416_
*494 _0417_
*495 _0418_
*496 _0419_
*497 _0420_
*498 _0421_
*499 _0422_
*500 _0423_
*501 _0424_
*502 _0425_
*503 _0426_
*504 _0427_
*505 _0428_
*506 _0429_
*507 _0430_
*508 _0431_
*509 _0432_
*510 _0433_
*511 _0434_
*512 _0435_
*513 _0436_
*514 _0437_
*515 _0438_
*516 _0439_
*517 _0440_
*518 _0441_
*519 _0442_
*520 _0443_
*521 _0444_
*522 _0445_
*523 _0446_
*524 _0447_
*525 _0448_
*526 _0449_
*527 _0450_
*528 _0451_
*529 _0452_
*530 _0453_
*531 _0454_
*532 _0455_
*533 _0456_
*534 _0457_
*535 _0458_
*536 _0459_
*537 _0460_
*538 _0461_
*539 _0462_
*540 _0463_
*541 _0464_
*542 _0465_
*543 _0466_
*544 _0467_
*545 _0468_
*546 _0469_
*547 _0470_
*548 _0471_
*549 _0472_
*550 _0473_
*551 _0474_
*552 _0475_
*553 _0476_
*554 _0477_
*555 _0478_
*556 _0479_
*557 _0480_
*558 _0481_
*559 _0482_
*560 _0483_
*561 _0484_
*562 _0485_
*563 _0486_
*564 _0487_
*565 _0488_
*566 _0489_
*567 _0490_
*568 _0491_
*569 _0492_
*570 _0493_
*571 _0494_
*572 _0495_
*573 _0496_
*574 _0497_
*575 _0498_
*576 _0499_
*577 _0500_
*578 _0501_
*579 _0502_
*580 _0503_
*581 _0504_
*582 _0505_
*583 _0506_
*584 _0507_
*585 _0508_
*586 _0509_
*587 _0510_
*588 _0511_
*589 _0512_
*590 _0513_
*591 _0514_
*592 _0515_
*593 _0516_
*594 _0517_
*595 _0518_
*596 _0519_
*597 _0520_
*598 _0521_
*599 _0522_
*600 _0523_
*601 _0524_
*602 _0525_
*603 _0526_
*604 _0527_
*605 _0528_
*606 _0529_
*607 _0530_
*608 _0531_
*609 _0532_
*610 _0533_
*611 _0534_
*612 _0535_
*613 _0536_
*614 _0537_
*615 _0538_
*616 _0539_
*617 _0540_
*618 _0541_
*619 clknet_0_clock
*620 clknet_2_0__leaf_clock
*621 clknet_2_1__leaf_clock
*622 clknet_2_2__leaf_clock
*623 clknet_2_3__leaf_clock
*624 manchester_baby_instance\.BASE_0\.s_countReg\[0\]
*625 manchester_baby_instance\.BASE_0\.s_countReg\[1\]
*626 manchester_baby_instance\.BASE_0\.s_countReg\[2\]
*627 manchester_baby_instance\.BASE_0\.s_tickNext
*628 manchester_baby_instance\.BASE_0\.s_tickReg
*629 manchester_baby_instance\.BASE_1\.s_bufferRegs\[0\]
*630 manchester_baby_instance\.BASE_1\.s_counterValue
*631 manchester_baby_instance\.BASE_1\.s_derivedClock
*632 manchester_baby_instance\.CIRCUIT_0\.ARITH_38\.dataB\[0\]
*633 manchester_baby_instance\.CIRCUIT_0\.ARITH_38\.dataB\[1\]
*634 manchester_baby_instance\.CIRCUIT_0\.ARITH_38\.dataB\[2\]
*635 manchester_baby_instance\.CIRCUIT_0\.ARITH_38\.dataB\[3\]
*636 manchester_baby_instance\.CIRCUIT_0\.ARITH_38\.dataB\[4\]
*637 manchester_baby_instance\.CIRCUIT_0\.Acc\.tick
*638 manchester_baby_instance\.CIRCUIT_0\.GATES_13\.result
*639 manchester_baby_instance\.CIRCUIT_0\.IR\.q\[0\]
*640 manchester_baby_instance\.CIRCUIT_0\.IR\.q\[13\]
*641 manchester_baby_instance\.CIRCUIT_0\.IR\.q\[14\]
*642 manchester_baby_instance\.CIRCUIT_0\.IR\.q\[15\]
*643 manchester_baby_instance\.CIRCUIT_0\.IR\.q\[1\]
*644 manchester_baby_instance\.CIRCUIT_0\.IR\.q\[2\]
*645 manchester_baby_instance\.CIRCUIT_0\.IR\.q\[3\]
*646 manchester_baby_instance\.CIRCUIT_0\.IR\.q\[4\]
*647 manchester_baby_instance\.CIRCUIT_0\.MEMORY_44\.countValue\[0\]
*648 manchester_baby_instance\.CIRCUIT_0\.MEMORY_44\.countValue\[1\]
*649 manchester_baby_instance\.CIRCUIT_0\.MEMORY_44\.countValue\[2\]
*650 manchester_baby_instance\.CIRCUIT_0\.MEMORY_44\.s_nextCounterValue\[0\]
*651 manchester_baby_instance\.CIRCUIT_0\.MEMORY_44\.s_nextCounterValue\[1\]
*652 manchester_baby_instance\.CIRCUIT_0\.MEMORY_44\.s_nextCounterValue\[2\]
*653 net1
*654 net10
*655 net100
*656 net101
*657 net102
*658 net103
*659 net104
*660 net105
*661 net106
*662 net107
*663 net108
*664 net11
*665 net12
*666 net13
*667 net14
*668 net15
*669 net16
*670 net17
*671 net18
*672 net19
*673 net2
*674 net20
*675 net21
*676 net22
*677 net23
*678 net24
*679 net25
*680 net26
*681 net27
*682 net28
*683 net29
*684 net3
*685 net30
*686 net31
*687 net32
*688 net33
*689 net34
*690 net35
*691 net36
*692 net37
*693 net38
*694 net39
*695 net4
*696 net40
*697 net41
*698 net42
*699 net43
*700 net44
*701 net45
*702 net46
*703 net47
*704 net48
*705 net49
*706 net5
*707 net50
*708 net51
*709 net52
*710 net53
*711 net54
*712 net55
*713 net56
*714 net57
*715 net58
*716 net59
*717 net6
*718 net60
*719 net61
*720 net62
*721 net63
*722 net64
*723 net65
*724 net66
*725 net67
*726 net68
*727 net69
*728 net7
*729 net70
*730 net71
*731 net72
*732 net73
*733 net74
*734 net75
*735 net76
*736 net77
*737 net78
*738 net79
*739 net8
*740 net80
*741 net81
*742 net82
*743 net83
*744 net84
*745 net85
*746 net86
*747 net87
*748 net88
*749 net89
*750 net9
*751 net90
*752 net91
*753 net92
*754 net93
*755 net94
*756 net95
*757 net96
*758 net97
*759 net98
*760 net99
*761 FILLER_0_0_105
*762 FILLER_0_0_111
*763 FILLER_0_0_113
*764 FILLER_0_0_118
*765 FILLER_0_0_126
*766 FILLER_0_0_133
*767 FILLER_0_0_139
*768 FILLER_0_0_141
*769 FILLER_0_0_149
*770 FILLER_0_0_15
*771 FILLER_0_0_154
*772 FILLER_0_0_161
*773 FILLER_0_0_169
*774 FILLER_0_0_175
*775 FILLER_0_0_182
*776 FILLER_0_0_189
*777 FILLER_0_0_195
*778 FILLER_0_0_197
*779 FILLER_0_0_209
*780 FILLER_0_0_217
*781 FILLER_0_0_223
*782 FILLER_0_0_225
*783 FILLER_0_0_237
*784 FILLER_0_0_249
*785 FILLER_0_0_253
*786 FILLER_0_0_265
*787 FILLER_0_0_27
*788 FILLER_0_0_277
*789 FILLER_0_0_281
*790 FILLER_0_0_29
*791 FILLER_0_0_293
*792 FILLER_0_0_3
*793 FILLER_0_0_305
*794 FILLER_0_0_309
*795 FILLER_0_0_317
*796 FILLER_0_0_41
*797 FILLER_0_0_53
*798 FILLER_0_0_57
*799 FILLER_0_0_69
*800 FILLER_0_0_81
*801 FILLER_0_0_85
*802 FILLER_0_0_90
*803 FILLER_0_0_97
*804 FILLER_0_10_109
*805 FILLER_0_10_117
*806 FILLER_0_10_129
*807 FILLER_0_10_137
*808 FILLER_0_10_141
*809 FILLER_0_10_153
*810 FILLER_0_10_165
*811 FILLER_0_10_173
*812 FILLER_0_10_19
*813 FILLER_0_10_190
*814 FILLER_0_10_197
*815 FILLER_0_10_201
*816 FILLER_0_10_209
*817 FILLER_0_10_240
*818 FILLER_0_10_253
*819 FILLER_0_10_265
*820 FILLER_0_10_27
*821 FILLER_0_10_277
*822 FILLER_0_10_289
*823 FILLER_0_10_29
*824 FILLER_0_10_301
*825 FILLER_0_10_307
*826 FILLER_0_10_309
*827 FILLER_0_10_317
*828 FILLER_0_10_37
*829 FILLER_0_10_62
*830 FILLER_0_10_66
*831 FILLER_0_10_7
*832 FILLER_0_10_79
*833 FILLER_0_10_83
*834 FILLER_0_10_85
*835 FILLER_0_10_97
*836 FILLER_0_11_102
*837 FILLER_0_11_113
*838 FILLER_0_11_125
*839 FILLER_0_11_138
*840 FILLER_0_11_150
*841 FILLER_0_11_163
*842 FILLER_0_11_167
*843 FILLER_0_11_169
*844 FILLER_0_11_18
*845 FILLER_0_11_182
*846 FILLER_0_11_194
*847 FILLER_0_11_202
*848 FILLER_0_11_207
*849 FILLER_0_11_213
*850 FILLER_0_11_220
*851 FILLER_0_11_245
*852 FILLER_0_11_254
*853 FILLER_0_11_266
*854 FILLER_0_11_278
*855 FILLER_0_11_281
*856 FILLER_0_11_293
*857 FILLER_0_11_30
*858 FILLER_0_11_305
*859 FILLER_0_11_313
*860 FILLER_0_11_42
*861 FILLER_0_11_50
*862 FILLER_0_11_6
*863 FILLER_0_11_80
*864 FILLER_0_11_91
*865 FILLER_0_11_95
*866 FILLER_0_12_107
*867 FILLER_0_12_111
*868 FILLER_0_12_115
*869 FILLER_0_12_123
*870 FILLER_0_12_141
*871 FILLER_0_12_149
*872 FILLER_0_12_158
*873 FILLER_0_12_170
*874 FILLER_0_12_179
*875 FILLER_0_12_18
*876 FILLER_0_12_202
*877 FILLER_0_12_215
*878 FILLER_0_12_229
*879 FILLER_0_12_234
*880 FILLER_0_12_240
*881 FILLER_0_12_248
*882 FILLER_0_12_253
*883 FILLER_0_12_26
*884 FILLER_0_12_265
*885 FILLER_0_12_277
*886 FILLER_0_12_289
*887 FILLER_0_12_29
*888 FILLER_0_12_301
*889 FILLER_0_12_307
*890 FILLER_0_12_309
*891 FILLER_0_12_315
*892 FILLER_0_12_40
*893 FILLER_0_12_48
*894 FILLER_0_12_56
*895 FILLER_0_12_6
*896 FILLER_0_12_68
*897 FILLER_0_12_85
*898 FILLER_0_13_102
*899 FILLER_0_13_111
*900 FILLER_0_13_113
*901 FILLER_0_13_130
*902 FILLER_0_13_142
*903 FILLER_0_13_148
*904 FILLER_0_13_15
*905 FILLER_0_13_159
*906 FILLER_0_13_167
*907 FILLER_0_13_169
*908 FILLER_0_13_182
*909 FILLER_0_13_194
*910 FILLER_0_13_210
*911 FILLER_0_13_222
*912 FILLER_0_13_267
*913 FILLER_0_13_279
*914 FILLER_0_13_281
*915 FILLER_0_13_293
*916 FILLER_0_13_3
*917 FILLER_0_13_305
*918 FILLER_0_13_317
*919 FILLER_0_13_54
*920 FILLER_0_13_62
*921 FILLER_0_13_68
*922 FILLER_0_13_74
*923 FILLER_0_13_86
*924 FILLER_0_13_98
*925 FILLER_0_14_109
*926 FILLER_0_14_113
*927 FILLER_0_14_125
*928 FILLER_0_14_137
*929 FILLER_0_14_179
*930 FILLER_0_14_189
*931 FILLER_0_14_19
*932 FILLER_0_14_195
*933 FILLER_0_14_197
*934 FILLER_0_14_201
*935 FILLER_0_14_217
*936 FILLER_0_14_228
*937 FILLER_0_14_236
*938 FILLER_0_14_251
*939 FILLER_0_14_253
*940 FILLER_0_14_269
*941 FILLER_0_14_27
*942 FILLER_0_14_281
*943 FILLER_0_14_29
*944 FILLER_0_14_293
*945 FILLER_0_14_305
*946 FILLER_0_14_309
*947 FILLER_0_14_37
*948 FILLER_0_14_55
*949 FILLER_0_14_61
*950 FILLER_0_14_7
*951 FILLER_0_14_83
*952 FILLER_0_14_85
*953 FILLER_0_14_89
*954 FILLER_0_14_97
*955 FILLER_0_15_113
*956 FILLER_0_15_126
*957 FILLER_0_15_130
*958 FILLER_0_15_143
*959 FILLER_0_15_151
*960 FILLER_0_15_155
*961 FILLER_0_15_167
*962 FILLER_0_15_169
*963 FILLER_0_15_19
*964 FILLER_0_15_194
*965 FILLER_0_15_202
*966 FILLER_0_15_209
*967 FILLER_0_15_230
*968 FILLER_0_15_247
*969 FILLER_0_15_261
*970 FILLER_0_15_269
*971 FILLER_0_15_275
*972 FILLER_0_15_279
*973 FILLER_0_15_281
*974 FILLER_0_15_293
*975 FILLER_0_15_305
*976 FILLER_0_15_31
*977 FILLER_0_15_43
*978 FILLER_0_15_55
*979 FILLER_0_15_57
*980 FILLER_0_15_64
*981 FILLER_0_15_7
*982 FILLER_0_15_76
*983 FILLER_0_15_82
*984 FILLER_0_16_109
*985 FILLER_0_16_119
*986 FILLER_0_16_137
*987 FILLER_0_16_141
*988 FILLER_0_16_170
*989 FILLER_0_16_182
*990 FILLER_0_16_186
*991 FILLER_0_16_19
*992 FILLER_0_16_191
*993 FILLER_0_16_195
*994 FILLER_0_16_197
*995 FILLER_0_16_209
*996 FILLER_0_16_217
*997 FILLER_0_16_224
*998 FILLER_0_16_232
*999 FILLER_0_16_238
*1000 FILLER_0_16_242
*1001 FILLER_0_16_246
*1002 FILLER_0_16_253
*1003 FILLER_0_16_257
*1004 FILLER_0_16_263
*1005 FILLER_0_16_284
*1006 FILLER_0_16_29
*1007 FILLER_0_16_296
*1008 FILLER_0_16_309
*1009 FILLER_0_16_35
*1010 FILLER_0_16_47
*1011 FILLER_0_16_51
*1012 FILLER_0_16_58
*1013 FILLER_0_16_68
*1014 FILLER_0_16_7
*1015 FILLER_0_16_72
*1016 FILLER_0_16_83
*1017 FILLER_0_16_85
*1018 FILLER_0_16_97
*1019 FILLER_0_17_100
*1020 FILLER_0_17_116
*1021 FILLER_0_17_128
*1022 FILLER_0_17_137
*1023 FILLER_0_17_149
*1024 FILLER_0_17_153
*1025 FILLER_0_17_162
*1026 FILLER_0_17_169
*1027 FILLER_0_17_18
*1028 FILLER_0_17_211
*1029 FILLER_0_17_223
*1030 FILLER_0_17_241
*1031 FILLER_0_17_262
*1032 FILLER_0_17_270
*1033 FILLER_0_17_278
*1034 FILLER_0_17_289
*1035 FILLER_0_17_301
*1036 FILLER_0_17_313
*1037 FILLER_0_17_55
*1038 FILLER_0_17_6
*1039 FILLER_0_17_64
*1040 FILLER_0_17_87
*1041 FILLER_0_18_107
*1042 FILLER_0_18_114
*1043 FILLER_0_18_126
*1044 FILLER_0_18_15
*1045 FILLER_0_18_150
*1046 FILLER_0_18_158
*1047 FILLER_0_18_167
*1048 FILLER_0_18_184
*1049 FILLER_0_18_200
*1050 FILLER_0_18_222
*1051 FILLER_0_18_234
*1052 FILLER_0_18_242
*1053 FILLER_0_18_250
*1054 FILLER_0_18_253
*1055 FILLER_0_18_268
*1056 FILLER_0_18_27
*1057 FILLER_0_18_280
*1058 FILLER_0_18_29
*1059 FILLER_0_18_292
*1060 FILLER_0_18_3
*1061 FILLER_0_18_304
*1062 FILLER_0_18_309
*1063 FILLER_0_18_317
*1064 FILLER_0_18_41
*1065 FILLER_0_18_49
*1066 FILLER_0_18_54
*1067 FILLER_0_18_60
*1068 FILLER_0_18_82
*1069 FILLER_0_18_85
*1070 FILLER_0_19_104
*1071 FILLER_0_19_119
*1072 FILLER_0_19_131
*1073 FILLER_0_19_143
*1074 FILLER_0_19_153
*1075 FILLER_0_19_165
*1076 FILLER_0_19_169
*1077 FILLER_0_19_179
*1078 FILLER_0_19_19
*1079 FILLER_0_19_191
*1080 FILLER_0_19_200
*1081 FILLER_0_19_208
*1082 FILLER_0_19_214
*1083 FILLER_0_19_225
*1084 FILLER_0_19_237
*1085 FILLER_0_19_241
*1086 FILLER_0_19_248
*1087 FILLER_0_19_264
*1088 FILLER_0_19_276
*1089 FILLER_0_19_281
*1090 FILLER_0_19_293
*1091 FILLER_0_19_305
*1092 FILLER_0_19_313
*1093 FILLER_0_19_51
*1094 FILLER_0_19_55
*1095 FILLER_0_19_7
*1096 FILLER_0_19_73
*1097 FILLER_0_19_77
*1098 FILLER_0_19_89
*1099 FILLER_0_1_105
*1100 FILLER_0_1_111
*1101 FILLER_0_1_113
*1102 FILLER_0_1_125
*1103 FILLER_0_1_137
*1104 FILLER_0_1_149
*1105 FILLER_0_1_15
*1106 FILLER_0_1_161
*1107 FILLER_0_1_167
*1108 FILLER_0_1_169
*1109 FILLER_0_1_181
*1110 FILLER_0_1_193
*1111 FILLER_0_1_205
*1112 FILLER_0_1_217
*1113 FILLER_0_1_223
*1114 FILLER_0_1_225
*1115 FILLER_0_1_237
*1116 FILLER_0_1_249
*1117 FILLER_0_1_261
*1118 FILLER_0_1_27
*1119 FILLER_0_1_273
*1120 FILLER_0_1_279
*1121 FILLER_0_1_281
*1122 FILLER_0_1_293
*1123 FILLER_0_1_3
*1124 FILLER_0_1_305
*1125 FILLER_0_1_317
*1126 FILLER_0_1_39
*1127 FILLER_0_1_51
*1128 FILLER_0_1_55
*1129 FILLER_0_1_57
*1130 FILLER_0_1_69
*1131 FILLER_0_1_81
*1132 FILLER_0_1_93
*1133 FILLER_0_20_107
*1134 FILLER_0_20_116
*1135 FILLER_0_20_120
*1136 FILLER_0_20_132
*1137 FILLER_0_20_141
*1138 FILLER_0_20_165
*1139 FILLER_0_20_173
*1140 FILLER_0_20_183
*1141 FILLER_0_20_187
*1142 FILLER_0_20_19
*1143 FILLER_0_20_195
*1144 FILLER_0_20_197
*1145 FILLER_0_20_225
*1146 FILLER_0_20_239
*1147 FILLER_0_20_247
*1148 FILLER_0_20_251
*1149 FILLER_0_20_259
*1150 FILLER_0_20_268
*1151 FILLER_0_20_27
*1152 FILLER_0_20_280
*1153 FILLER_0_20_29
*1154 FILLER_0_20_292
*1155 FILLER_0_20_304
*1156 FILLER_0_20_309
*1157 FILLER_0_20_315
*1158 FILLER_0_20_36
*1159 FILLER_0_20_42
*1160 FILLER_0_20_51
*1161 FILLER_0_20_61
*1162 FILLER_0_20_7
*1163 FILLER_0_20_73
*1164 FILLER_0_20_81
*1165 FILLER_0_20_91
*1166 FILLER_0_20_99
*1167 FILLER_0_21_111
*1168 FILLER_0_21_133
*1169 FILLER_0_21_139
*1170 FILLER_0_21_146
*1171 FILLER_0_21_153
*1172 FILLER_0_21_165
*1173 FILLER_0_21_169
*1174 FILLER_0_21_178
*1175 FILLER_0_21_18
*1176 FILLER_0_21_185
*1177 FILLER_0_21_191
*1178 FILLER_0_21_203
*1179 FILLER_0_21_207
*1180 FILLER_0_21_211
*1181 FILLER_0_21_218
*1182 FILLER_0_21_22
*1183 FILLER_0_21_225
*1184 FILLER_0_21_231
*1185 FILLER_0_21_237
*1186 FILLER_0_21_249
*1187 FILLER_0_21_258
*1188 FILLER_0_21_264
*1189 FILLER_0_21_276
*1190 FILLER_0_21_281
*1191 FILLER_0_21_293
*1192 FILLER_0_21_305
*1193 FILLER_0_21_43
*1194 FILLER_0_21_47
*1195 FILLER_0_21_51
*1196 FILLER_0_21_55
*1197 FILLER_0_21_57
*1198 FILLER_0_21_6
*1199 FILLER_0_21_69
*1200 FILLER_0_21_73
*1201 FILLER_0_21_79
*1202 FILLER_0_22_105
*1203 FILLER_0_22_117
*1204 FILLER_0_22_124
*1205 FILLER_0_22_136
*1206 FILLER_0_22_141
*1207 FILLER_0_22_149
*1208 FILLER_0_22_184
*1209 FILLER_0_22_19
*1210 FILLER_0_22_238
*1211 FILLER_0_22_250
*1212 FILLER_0_22_259
*1213 FILLER_0_22_27
*1214 FILLER_0_22_272
*1215 FILLER_0_22_284
*1216 FILLER_0_22_29
*1217 FILLER_0_22_296
*1218 FILLER_0_22_309
*1219 FILLER_0_22_315
*1220 FILLER_0_22_33
*1221 FILLER_0_22_42
*1222 FILLER_0_22_58
*1223 FILLER_0_22_7
*1224 FILLER_0_22_94
*1225 FILLER_0_23_104
*1226 FILLER_0_23_119
*1227 FILLER_0_23_124
*1228 FILLER_0_23_129
*1229 FILLER_0_23_139
*1230 FILLER_0_23_145
*1231 FILLER_0_23_15
*1232 FILLER_0_23_166
*1233 FILLER_0_23_169
*1234 FILLER_0_23_173
*1235 FILLER_0_23_185
*1236 FILLER_0_23_223
*1237 FILLER_0_23_234
*1238 FILLER_0_23_246
*1239 FILLER_0_23_255
*1240 FILLER_0_23_267
*1241 FILLER_0_23_27
*1242 FILLER_0_23_279
*1243 FILLER_0_23_281
*1244 FILLER_0_23_293
*1245 FILLER_0_23_3
*1246 FILLER_0_23_305
*1247 FILLER_0_23_317
*1248 FILLER_0_23_35
*1249 FILLER_0_23_45
*1250 FILLER_0_23_55
*1251 FILLER_0_23_57
*1252 FILLER_0_23_65
*1253 FILLER_0_23_72
*1254 FILLER_0_23_76
*1255 FILLER_0_23_80
*1256 FILLER_0_24_115
*1257 FILLER_0_24_137
*1258 FILLER_0_24_148
*1259 FILLER_0_24_154
*1260 FILLER_0_24_158
*1261 FILLER_0_24_177
*1262 FILLER_0_24_18
*1263 FILLER_0_24_189
*1264 FILLER_0_24_197
*1265 FILLER_0_24_209
*1266 FILLER_0_24_221
*1267 FILLER_0_24_250
*1268 FILLER_0_24_253
*1269 FILLER_0_24_26
*1270 FILLER_0_24_274
*1271 FILLER_0_24_286
*1272 FILLER_0_24_29
*1273 FILLER_0_24_298
*1274 FILLER_0_24_306
*1275 FILLER_0_24_309
*1276 FILLER_0_24_315
*1277 FILLER_0_24_37
*1278 FILLER_0_24_59
*1279 FILLER_0_24_6
*1280 FILLER_0_24_78
*1281 FILLER_0_24_85
*1282 FILLER_0_25_108
*1283 FILLER_0_25_119
*1284 FILLER_0_25_127
*1285 FILLER_0_25_136
*1286 FILLER_0_25_143
*1287 FILLER_0_25_157
*1288 FILLER_0_25_167
*1289 FILLER_0_25_19
*1290 FILLER_0_25_196
*1291 FILLER_0_25_208
*1292 FILLER_0_25_212
*1293 FILLER_0_25_218
*1294 FILLER_0_25_225
*1295 FILLER_0_25_23
*1296 FILLER_0_25_236
*1297 FILLER_0_25_248
*1298 FILLER_0_25_254
*1299 FILLER_0_25_260
*1300 FILLER_0_25_268
*1301 FILLER_0_25_275
*1302 FILLER_0_25_279
*1303 FILLER_0_25_281
*1304 FILLER_0_25_293
*1305 FILLER_0_25_305
*1306 FILLER_0_25_313
*1307 FILLER_0_25_55
*1308 FILLER_0_25_63
*1309 FILLER_0_25_7
*1310 FILLER_0_25_70
*1311 FILLER_0_25_82
*1312 FILLER_0_25_88
*1313 FILLER_0_25_96
*1314 FILLER_0_26_112
*1315 FILLER_0_26_133
*1316 FILLER_0_26_141
*1317 FILLER_0_26_163
*1318 FILLER_0_26_171
*1319 FILLER_0_26_175
*1320 FILLER_0_26_179
*1321 FILLER_0_26_19
*1322 FILLER_0_26_193
*1323 FILLER_0_26_207
*1324 FILLER_0_26_251
*1325 FILLER_0_26_253
*1326 FILLER_0_26_269
*1327 FILLER_0_26_27
*1328 FILLER_0_26_282
*1329 FILLER_0_26_29
*1330 FILLER_0_26_294
*1331 FILLER_0_26_306
*1332 FILLER_0_26_309
*1333 FILLER_0_26_41
*1334 FILLER_0_26_47
*1335 FILLER_0_26_59
*1336 FILLER_0_26_7
*1337 FILLER_0_26_71
*1338 FILLER_0_26_78
*1339 FILLER_0_26_85
*1340 FILLER_0_26_94
*1341 FILLER_0_27_109
*1342 FILLER_0_27_117
*1343 FILLER_0_27_13
*1344 FILLER_0_27_136
*1345 FILLER_0_27_143
*1346 FILLER_0_27_153
*1347 FILLER_0_27_157
*1348 FILLER_0_27_161
*1349 FILLER_0_27_169
*1350 FILLER_0_27_173
*1351 FILLER_0_27_180
*1352 FILLER_0_27_186
*1353 FILLER_0_27_215
*1354 FILLER_0_27_223
*1355 FILLER_0_27_237
*1356 FILLER_0_27_243
*1357 FILLER_0_27_25
*1358 FILLER_0_27_250
*1359 FILLER_0_27_256
*1360 FILLER_0_27_264
*1361 FILLER_0_27_276
*1362 FILLER_0_27_281
*1363 FILLER_0_27_293
*1364 FILLER_0_27_305
*1365 FILLER_0_27_313
*1366 FILLER_0_27_33
*1367 FILLER_0_27_43
*1368 FILLER_0_27_50
*1369 FILLER_0_27_76
*1370 FILLER_0_27_96
*1371 FILLER_0_28_109
*1372 FILLER_0_28_121
*1373 FILLER_0_28_133
*1374 FILLER_0_28_141
*1375 FILLER_0_28_15
*1376 FILLER_0_28_166
*1377 FILLER_0_28_194
*1378 FILLER_0_28_203
*1379 FILLER_0_28_210
*1380 FILLER_0_28_222
*1381 FILLER_0_28_234
*1382 FILLER_0_28_246
*1383 FILLER_0_28_253
*1384 FILLER_0_28_257
*1385 FILLER_0_28_27
*1386 FILLER_0_28_289
*1387 FILLER_0_28_29
*1388 FILLER_0_28_3
*1389 FILLER_0_28_301
*1390 FILLER_0_28_307
*1391 FILLER_0_28_309
*1392 FILLER_0_28_317
*1393 FILLER_0_28_41
*1394 FILLER_0_28_55
*1395 FILLER_0_28_66
*1396 FILLER_0_28_70
*1397 FILLER_0_28_74
*1398 FILLER_0_28_82
*1399 FILLER_0_28_85
*1400 FILLER_0_28_89
*1401 FILLER_0_28_97
*1402 FILLER_0_29_120
*1403 FILLER_0_29_137
*1404 FILLER_0_29_149
*1405 FILLER_0_29_161
*1406 FILLER_0_29_167
*1407 FILLER_0_29_173
*1408 FILLER_0_29_179
*1409 FILLER_0_29_187
*1410 FILLER_0_29_19
*1411 FILLER_0_29_193
*1412 FILLER_0_29_201
*1413 FILLER_0_29_221
*1414 FILLER_0_29_237
*1415 FILLER_0_29_245
*1416 FILLER_0_29_257
*1417 FILLER_0_29_270
*1418 FILLER_0_29_278
*1419 FILLER_0_29_281
*1420 FILLER_0_29_293
*1421 FILLER_0_29_305
*1422 FILLER_0_29_31
*1423 FILLER_0_29_313
*1424 FILLER_0_29_43
*1425 FILLER_0_29_52
*1426 FILLER_0_29_57
*1427 FILLER_0_29_65
*1428 FILLER_0_29_7
*1429 FILLER_0_29_82
*1430 FILLER_0_29_88
*1431 FILLER_0_2_109
*1432 FILLER_0_2_121
*1433 FILLER_0_2_133
*1434 FILLER_0_2_139
*1435 FILLER_0_2_141
*1436 FILLER_0_2_15
*1437 FILLER_0_2_153
*1438 FILLER_0_2_165
*1439 FILLER_0_2_177
*1440 FILLER_0_2_189
*1441 FILLER_0_2_195
*1442 FILLER_0_2_197
*1443 FILLER_0_2_209
*1444 FILLER_0_2_221
*1445 FILLER_0_2_233
*1446 FILLER_0_2_245
*1447 FILLER_0_2_251
*1448 FILLER_0_2_253
*1449 FILLER_0_2_265
*1450 FILLER_0_2_27
*1451 FILLER_0_2_277
*1452 FILLER_0_2_289
*1453 FILLER_0_2_29
*1454 FILLER_0_2_3
*1455 FILLER_0_2_301
*1456 FILLER_0_2_307
*1457 FILLER_0_2_309
*1458 FILLER_0_2_317
*1459 FILLER_0_2_41
*1460 FILLER_0_2_53
*1461 FILLER_0_2_65
*1462 FILLER_0_2_77
*1463 FILLER_0_2_83
*1464 FILLER_0_2_85
*1465 FILLER_0_2_97
*1466 FILLER_0_30_101
*1467 FILLER_0_30_110
*1468 FILLER_0_30_118
*1469 FILLER_0_30_126
*1470 FILLER_0_30_139
*1471 FILLER_0_30_141
*1472 FILLER_0_30_152
*1473 FILLER_0_30_160
*1474 FILLER_0_30_166
*1475 FILLER_0_30_175
*1476 FILLER_0_30_18
*1477 FILLER_0_30_186
*1478 FILLER_0_30_194
*1479 FILLER_0_30_197
*1480 FILLER_0_30_208
*1481 FILLER_0_30_225
*1482 FILLER_0_30_251
*1483 FILLER_0_30_253
*1484 FILLER_0_30_26
*1485 FILLER_0_30_281
*1486 FILLER_0_30_293
*1487 FILLER_0_30_305
*1488 FILLER_0_30_309
*1489 FILLER_0_30_315
*1490 FILLER_0_30_32
*1491 FILLER_0_30_43
*1492 FILLER_0_30_52
*1493 FILLER_0_30_6
*1494 FILLER_0_30_65
*1495 FILLER_0_30_77
*1496 FILLER_0_30_83
*1497 FILLER_0_30_85
*1498 FILLER_0_30_91
*1499 FILLER_0_31_105
*1500 FILLER_0_31_111
*1501 FILLER_0_31_121
*1502 FILLER_0_31_125
*1503 FILLER_0_31_129
*1504 FILLER_0_31_137
*1505 FILLER_0_31_141
*1506 FILLER_0_31_167
*1507 FILLER_0_31_18
*1508 FILLER_0_31_190
*1509 FILLER_0_31_198
*1510 FILLER_0_31_225
*1511 FILLER_0_31_235
*1512 FILLER_0_31_247
*1513 FILLER_0_31_275
*1514 FILLER_0_31_279
*1515 FILLER_0_31_281
*1516 FILLER_0_31_293
*1517 FILLER_0_31_305
*1518 FILLER_0_31_47
*1519 FILLER_0_31_55
*1520 FILLER_0_31_57
*1521 FILLER_0_31_6
*1522 FILLER_0_31_61
*1523 FILLER_0_31_78
*1524 FILLER_0_31_84
*1525 FILLER_0_32_123
*1526 FILLER_0_32_138
*1527 FILLER_0_32_141
*1528 FILLER_0_32_154
*1529 FILLER_0_32_158
*1530 FILLER_0_32_162
*1531 FILLER_0_32_174
*1532 FILLER_0_32_180
*1533 FILLER_0_32_19
*1534 FILLER_0_32_192
*1535 FILLER_0_32_248
*1536 FILLER_0_32_253
*1537 FILLER_0_32_265
*1538 FILLER_0_32_27
*1539 FILLER_0_32_277
*1540 FILLER_0_32_289
*1541 FILLER_0_32_29
*1542 FILLER_0_32_301
*1543 FILLER_0_32_307
*1544 FILLER_0_32_309
*1545 FILLER_0_32_315
*1546 FILLER_0_32_41
*1547 FILLER_0_32_53
*1548 FILLER_0_32_59
*1549 FILLER_0_32_63
*1550 FILLER_0_32_7
*1551 FILLER_0_32_78
*1552 FILLER_0_32_94
*1553 FILLER_0_32_98
*1554 FILLER_0_33_104
*1555 FILLER_0_33_108
*1556 FILLER_0_33_113
*1557 FILLER_0_33_132
*1558 FILLER_0_33_144
*1559 FILLER_0_33_15
*1560 FILLER_0_33_169
*1561 FILLER_0_33_180
*1562 FILLER_0_33_191
*1563 FILLER_0_33_202
*1564 FILLER_0_33_212
*1565 FILLER_0_33_225
*1566 FILLER_0_33_27
*1567 FILLER_0_33_275
*1568 FILLER_0_33_279
*1569 FILLER_0_33_281
*1570 FILLER_0_33_293
*1571 FILLER_0_33_3
*1572 FILLER_0_33_305
*1573 FILLER_0_33_317
*1574 FILLER_0_33_39
*1575 FILLER_0_33_51
*1576 FILLER_0_33_55
*1577 FILLER_0_34_106
*1578 FILLER_0_34_118
*1579 FILLER_0_34_124
*1580 FILLER_0_34_136
*1581 FILLER_0_34_141
*1582 FILLER_0_34_147
*1583 FILLER_0_34_151
*1584 FILLER_0_34_155
*1585 FILLER_0_34_160
*1586 FILLER_0_34_19
*1587 FILLER_0_34_195
*1588 FILLER_0_34_210
*1589 FILLER_0_34_222
*1590 FILLER_0_34_239
*1591 FILLER_0_34_251
*1592 FILLER_0_34_268
*1593 FILLER_0_34_27
*1594 FILLER_0_34_281
*1595 FILLER_0_34_29
*1596 FILLER_0_34_293
*1597 FILLER_0_34_305
*1598 FILLER_0_34_309
*1599 FILLER_0_34_315
*1600 FILLER_0_34_58
*1601 FILLER_0_34_7
*1602 FILLER_0_34_70
*1603 FILLER_0_34_82
*1604 FILLER_0_34_94
*1605 FILLER_0_35_100
*1606 FILLER_0_35_159
*1607 FILLER_0_35_167
*1608 FILLER_0_35_169
*1609 FILLER_0_35_181
*1610 FILLER_0_35_19
*1611 FILLER_0_35_196
*1612 FILLER_0_35_223
*1613 FILLER_0_35_235
*1614 FILLER_0_35_243
*1615 FILLER_0_35_251
*1616 FILLER_0_35_261
*1617 FILLER_0_35_277
*1618 FILLER_0_35_281
*1619 FILLER_0_35_293
*1620 FILLER_0_35_305
*1621 FILLER_0_35_31
*1622 FILLER_0_35_37
*1623 FILLER_0_35_49
*1624 FILLER_0_35_55
*1625 FILLER_0_35_60
*1626 FILLER_0_35_7
*1627 FILLER_0_36_115
*1628 FILLER_0_36_119
*1629 FILLER_0_36_144
*1630 FILLER_0_36_178
*1631 FILLER_0_36_19
*1632 FILLER_0_36_193
*1633 FILLER_0_36_197
*1634 FILLER_0_36_205
*1635 FILLER_0_36_213
*1636 FILLER_0_36_226
*1637 FILLER_0_36_238
*1638 FILLER_0_36_260
*1639 FILLER_0_36_27
*1640 FILLER_0_36_272
*1641 FILLER_0_36_284
*1642 FILLER_0_36_296
*1643 FILLER_0_36_309
*1644 FILLER_0_36_315
*1645 FILLER_0_36_50