*SPEF "ieee 1481-1999"
*DESIGN "openlane_manchester_baby"
*DATE "11:11:11 Fri 11 11, 1111"
*VENDOR "OpenRCX"
*PROGRAM "Parallel Extraction"
*VERSION "1.0"
*DESIGN_FLOW "NAME_SCOPE LOCAL" "PIN_CAP NONE"
*DIVIDER /
*DELIMITER :
*BUS_DELIMITER []
*T_UNIT 1 NS
*C_UNIT 1 PF
*R_UNIT 1 OHM
*L_UNIT 1 HENRY

*NAME_MAP
*3 clock
*4 ram_addr_o[0]
*5 ram_addr_o[1]
*6 ram_addr_o[2]
*7 ram_addr_o[3]
*8 ram_addr_o[4]
*9 ram_data_io[0]
*10 ram_data_io[10]
*11 ram_data_io[11]
*12 ram_data_io[12]
*13 ram_data_io[13]
*14 ram_data_io[14]
*15 ram_data_io[15]
*16 ram_data_io[16]
*17 ram_data_io[17]
*18 ram_data_io[18]
*19 ram_data_io[19]
*20 ram_data_io[1]
*21 ram_data_io[20]
*22 ram_data_io[21]
*23 ram_data_io[22]
*24 ram_data_io[23]
*25 ram_data_io[24]
*26 ram_data_io[25]
*27 ram_data_io[26]
*28 ram_data_io[27]
*29 ram_data_io[28]
*30 ram_data_io[29]
*31 ram_data_io[2]
*32 ram_data_io[30]
*33 ram_data_io[31]
*34 ram_data_io[3]
*35 ram_data_io[4]
*36 ram_data_io[5]
*37 ram_data_io[6]
*38 ram_data_io[7]
*39 ram_data_io[8]
*40 ram_data_io[9]
*41 ram_rw_en_o
*42 reset_i
*43 stop_lamp_o
*44 _0000_
*45 _0001_
*46 _0002_
*47 _0003_
*48 _0004_
*49 _0005_
*50 _0006_
*51 _0007_
*52 _0008_
*53 _0009_
*54 _0010_
*55 _0011_
*56 _0012_
*57 _0013_
*58 _0014_
*59 _0015_
*60 _0016_
*61 _0017_
*62 _0018_
*63 _0019_
*64 _0020_
*65 _0021_
*66 _0022_
*67 _0023_
*68 _0024_
*69 _0025_
*70 _0026_
*71 _0027_
*72 _0028_
*73 _0029_
*74 _0030_
*75 _0031_
*76 _0032_
*77 _0033_
*78 _0034_
*79 _0035_
*80 _0036_
*81 _0037_
*82 _0038_
*83 _0039_
*84 _0040_
*85 _0041_
*86 _0042_
*87 _0043_
*88 _0044_
*89 _0045_
*90 _0046_
*91 _0047_
*92 _0048_
*93 _0049_
*94 _0050_
*95 _0051_
*96 _0052_
*97 _0053_
*98 _0054_
*99 _0055_
*100 _0056_
*101 _0057_
*102 _0058_
*103 _0059_
*104 _0060_
*105 _0061_
*106 _0062_
*107 _0063_
*108 _0064_
*109 _0065_
*110 _0066_
*111 _0067_
*112 _0068_
*113 _0069_
*114 _0070_
*115 _0071_
*116 _0072_
*117 _0073_
*118 _0074_
*119 _0075_
*120 _0076_
*121 _0077_
*122 _0078_
*123 _0079_
*124 _0080_
*125 _0081_
*126 _0082_
*127 _0083_
*128 _0084_
*129 _0085_
*130 _0086_
*131 _0087_
*132 _0088_
*133 _0089_
*134 _0090_
*135 _0091_
*136 _0092_
*137 _0093_
*138 _0094_
*139 _0095_
*140 _0096_
*141 _0097_
*142 _0098_
*143 _0099_
*144 _0100_
*145 _0101_
*146 _0102_
*147 _0103_
*148 _0104_
*149 _0105_
*150 _0106_
*151 _0107_
*152 _0108_
*153 _0109_
*154 _0110_
*155 _0111_
*156 _0112_
*157 _0113_
*158 _0114_
*159 _0115_
*160 _0116_
*161 _0117_
*162 _0118_
*163 _0119_
*164 _0120_
*165 _0121_
*166 _0122_
*167 _0123_
*168 _0124_
*169 _0125_
*170 _0126_
*171 _0127_
*172 _0128_
*173 _0129_
*174 _0130_
*175 _0131_
*176 _0132_
*177 _0133_
*178 _0134_
*179 _0135_
*180 _0136_
*181 _0137_
*182 _0138_
*183 _0139_
*184 _0140_
*185 _0141_
*186 _0142_
*187 _0143_
*188 _0144_
*189 _0145_
*190 _0146_
*191 _0147_
*192 _0148_
*193 _0149_
*194 _0150_
*195 _0151_
*196 _0152_
*197 _0153_
*198 _0154_
*199 _0155_
*200 _0156_
*201 _0157_
*202 _0158_
*203 _0159_
*204 _0160_
*205 _0161_
*206 _0162_
*207 _0163_
*208 _0164_
*209 _0165_
*210 _0166_
*211 _0167_
*212 _0168_
*213 _0169_
*214 _0170_
*215 _0171_
*216 _0172_
*217 _0173_
*218 _0174_
*219 _0175_
*220 _0176_
*221 _0177_
*222 _0178_
*223 _0179_
*224 _0180_
*225 _0181_
*226 _0182_
*227 _0183_
*228 _0184_
*229 _0185_
*230 _0186_
*231 _0187_
*232 _0188_
*233 _0189_
*234 _0190_
*235 _0191_
*236 _0192_
*237 _0193_
*238 _0194_
*239 _0195_
*240 _0196_
*241 _0197_
*242 _0198_
*243 _0199_
*244 _0200_
*245 _0201_
*246 _0202_
*247 _0203_
*248 _0204_
*249 _0205_
*250 _0206_
*251 _0207_
*252 _0208_
*253 _0209_
*254 _0210_
*255 _0211_
*256 _0212_
*257 _0213_
*258 _0214_
*259 _0215_
*260 _0216_
*261 _0217_
*262 _0218_
*263 _0219_
*264 _0220_
*265 _0221_
*266 _0222_
*267 _0223_
*268 _0224_
*269 _0225_
*270 _0226_
*271 _0227_
*272 _0228_
*273 _0229_
*274 _0230_
*275 _0231_
*276 _0232_
*277 _0233_
*278 _0234_
*279 _0235_
*280 _0236_
*281 _0237_
*282 _0238_
*283 _0239_
*284 _0240_
*285 _0241_
*286 _0242_
*287 _0243_
*288 _0244_
*289 _0245_
*290 _0246_
*291 _0247_
*292 _0248_
*293 _0249_
*294 _0250_
*295 _0251_
*296 _0252_
*297 _0253_
*298 _0254_
*299 _0255_
*300 _0256_
*301 _0257_
*302 _0258_
*303 _0259_
*304 _0260_
*305 _0261_
*306 _0262_
*307 _0263_
*308 _0264_
*309 _0265_
*310 _0266_
*311 _0267_
*312 _0268_
*313 _0269_
*314 _0270_
*315 _0271_
*316 _0272_
*317 _0273_
*318 _0274_
*319 _0275_
*320 _0276_
*321 _0277_
*322 _0278_
*323 _0279_
*324 _0280_
*325 _0281_
*326 _0282_
*327 _0283_
*328 _0284_
*329 _0285_
*330 _0286_
*331 _0287_
*332 _0288_
*333 _0289_
*334 _0290_
*335 _0291_
*336 _0292_
*337 _0293_
*338 _0294_
*339 _0295_
*340 _0296_
*341 _0297_
*342 _0298_
*343 _0299_
*344 _0300_
*345 _0301_
*346 _0302_
*347 _0303_
*348 _0304_
*349 _0305_
*350 _0306_
*351 _0307_
*352 _0308_
*353 _0309_
*354 _0310_
*355 _0311_
*356 _0312_
*357 _0313_
*358 _0314_
*359 _0315_
*360 _0316_
*361 _0317_
*362 _0318_
*363 _0319_
*364 _0320_
*365 _0321_
*366 _0322_
*367 _0323_
*368 _0324_
*369 _0325_
*370 _0326_
*371 _0327_
*372 _0328_
*373 _0329_
*374 _0330_
*375 _0331_
*376 _0332_
*377 _0333_
*378 _0334_
*379 _0335_
*380 _0336_
*381 _0337_
*382 _0338_
*383 _0339_
*384 _0340_
*385 _0341_
*386 _0342_
*387 _0343_
*388 _0344_
*389 _0345_
*390 _0346_
*391 _0347_
*392 _0348_
*393 _0349_
*394 _0350_
*395 _0351_
*396 _0352_
*397 _0353_
*398 _0354_
*399 _0355_
*400 _0356_
*401 _0357_
*402 _0358_
*403 _0359_
*404 _0360_
*405 _0361_
*406 _0362_
*407 _0363_
*408 _0364_
*409 _0365_
*410 _0366_
*411 _0367_
*412 _0368_
*413 _0369_
*414 _0370_
*415 _0371_
*416 _0372_
*417 _0373_
*418 _0374_
*419 _0375_
*420 _0376_
*421 _0377_
*422 _0378_
*423 _0379_
*424 _0380_
*425 _0381_
*426 _0382_
*427 _0383_
*428 _0384_
*429 _0385_
*430 _0386_
*431 _0387_
*432 _0388_
*433 _0389_
*434 _0390_
*435 _0391_
*436 _0392_
*437 _0393_
*438 _0394_
*439 _0395_
*440 _0396_
*441 _0397_
*442 _0398_
*443 _0399_
*444 _0400_
*445 _0401_
*446 _0402_
*447 _0403_
*448 _0404_
*449 _0405_
*450 _0406_
*451 _0407_
*452 _0408_
*453 _0409_
*454 _0410_
*455 _0411_
*456 _0412_
*457 _0413_
*458 _0414_
*459 _0415_
*460 _0416_
*461 _0417_
*462 _0418_
*463 _0419_
*464 _0420_
*465 _0421_
*466 _0422_
*467 _0423_
*468 _0424_
*469 _0425_
*470 _0426_
*471 _0427_
*472 _0428_
*473 _0429_
*474 _0430_
*475 _0431_
*476 _0432_
*477 _0433_
*478 _0434_
*479 _0435_
*480 _0436_
*481 _0437_
*482 _0438_
*483 _0439_
*484 _0440_
*485 _0441_
*486 _0442_
*487 _0443_
*488 _0444_
*489 _0445_
*490 _0446_
*491 _0447_
*492 _0448_
*493 _0449_
*494 _0450_
*495 _0451_
*496 _0452_
*497 _0453_
*498 _0454_
*499 _0455_
*500 _0456_
*501 _0457_
*502 _0458_
*503 _0459_
*504 _0460_
*505 _0461_
*506 _0462_
*507 _0463_
*508 _0464_
*509 _0465_
*510 _0466_
*511 _0467_
*512 _0468_
*513 _0469_
*514 _0470_
*515 _0471_
*516 _0472_
*517 _0473_
*518 _0474_
*519 _0475_
*520 _0476_
*521 _0477_
*522 _0478_
*523 _0479_
*524 _0480_
*525 _0481_
*526 _0482_
*527 _0483_
*528 _0484_
*529 _0485_
*530 _0486_
*531 _0487_
*532 _0488_
*533 _0489_
*534 _0490_
*535 _0491_
*536 _0492_
*537 _0493_
*538 _0494_
*539 _0495_
*540 _0496_
*541 _0497_
*542 _0498_
*543 _0499_
*544 _0500_
*545 _0501_
*546 _0502_
*547 _0503_
*548 _0504_
*549 _0505_
*550 _0506_
*551 _0507_
*552 _0508_
*553 _0509_
*554 _0510_
*555 _0511_
*556 _0512_
*557 _0513_
*558 _0514_
*559 _0515_
*560 _0516_
*561 _0517_
*562 _0518_
*563 _0519_
*564 _0520_
*565 _0521_
*566 _0522_
*567 _0523_
*568 _0524_
*569 _0525_
*570 _0526_
*571 _0527_
*572 _0528_
*573 _0529_
*574 _0530_
*575 _0531_
*576 _0532_
*577 _0533_
*578 _0534_
*579 _0535_
*580 _0536_
*581 _0537_
*582 _0538_
*583 _0539_
*584 _0540_
*585 _0541_
*586 _0542_
*587 _0543_
*588 _0544_
*589 _0545_
*590 _0546_
*591 _0547_
*592 _0548_
*593 _0549_
*594 _0550_
*595 _0551_
*596 _0552_
*597 _0553_
*598 _0554_
*599 _0555_
*600 _0556_
*601 _0557_
*602 _0558_
*603 _0559_
*604 _0560_
*605 _0561_
*606 _0562_
*607 _0563_
*608 _0564_
*609 _0565_
*610 _0566_
*611 _0567_
*612 _0568_
*613 _0569_
*614 _0570_
*615 _0571_
*616 _0572_
*617 _0573_
*618 _0574_
*619 _0575_
*620 _0576_
*621 _0577_
*622 _0578_
*623 _0579_
*624 _0580_
*625 _0581_
*626 _0582_
*627 _0583_
*628 _0584_
*629 _0585_
*630 _0586_
*631 _0587_
*632 _0588_
*633 _0589_
*634 _0590_
*635 _0591_
*636 _0592_
*637 _0593_
*638 _0594_
*639 _0595_
*640 _0596_
*641 _0597_
*642 _0598_
*643 _0599_
*644 _0600_
*645 _0601_
*646 _0602_
*647 _0603_
*648 _0604_
*649 _0605_
*650 _0606_
*651 _0607_
*652 _0608_
*653 _0609_
*654 _0610_
*655 _0611_
*656 _0612_
*657 _0613_
*658 _0614_
*659 _0615_
*660 _0616_
*661 _0617_
*662 _0618_
*663 _0619_
*664 _0620_
*665 _0621_
*666 _0622_
*667 _0623_
*668 _0624_
*669 _0625_
*670 _0626_
*671 _0627_
*672 _0628_
*673 _0629_
*674 _0630_
*675 _0631_
*676 _0632_
*677 _0633_
*678 _0634_
*679 _0635_
*680 _0636_
*681 _0637_
*682 _0638_
*683 _0639_
*684 _0640_
*685 _0641_
*686 _0642_
*687 _0643_
*688 _0644_
*689 _0645_
*690 _0646_
*691 _0647_
*692 _0648_
*693 _0649_
*694 _0650_
*695 _0651_
*696 _0652_
*697 _0653_
*698 _0654_
*699 _0655_
*700 _0656_
*701 _0657_
*702 _0658_
*703 _0659_
*704 _0660_
*705 _0661_
*706 _0662_
*707 _0663_
*708 _0664_
*709 _0665_
*710 _0666_
*711 _0667_
*712 _0668_
*713 _0669_
*714 _0670_
*715 _0671_
*716 _0672_
*717 _0673_
*718 _0674_
*719 _0675_
*720 clknet_0_clock
*721 clknet_3_0__leaf_clock
*722 clknet_3_1__leaf_clock
*723 clknet_3_2__leaf_clock
*724 clknet_3_3__leaf_clock
*725 clknet_3_4__leaf_clock
*726 clknet_3_5__leaf_clock
*727 clknet_3_6__leaf_clock
*728 clknet_3_7__leaf_clock
*729 manchester_baby_instance\.BASE_0\.s_countReg\[0\]
*730 manchester_baby_instance\.BASE_0\.s_countReg\[10\]
*731 manchester_baby_instance\.BASE_0\.s_countReg\[11\]
*732 manchester_baby_instance\.BASE_0\.s_countReg\[12\]
*733 manchester_baby_instance\.BASE_0\.s_countReg\[13\]
*734 manchester_baby_instance\.BASE_0\.s_countReg\[14\]
*735 manchester_baby_instance\.BASE_0\.s_countReg\[15\]
*736 manchester_baby_instance\.BASE_0\.s_countReg\[16\]
*737 manchester_baby_instance\.BASE_0\.s_countReg\[17\]
*738 manchester_baby_instance\.BASE_0\.s_countReg\[18\]
*739 manchester_baby_instance\.BASE_0\.s_countReg\[19\]
*740 manchester_baby_instance\.BASE_0\.s_countReg\[1\]
*741 manchester_baby_instance\.BASE_0\.s_countReg\[20\]
*742 manchester_baby_instance\.BASE_0\.s_countReg\[21\]
*743 manchester_baby_instance\.BASE_0\.s_countReg\[22\]
*744 manchester_baby_instance\.BASE_0\.s_countReg\[23\]
*745 manchester_baby_instance\.BASE_0\.s_countReg\[24\]
*746 manchester_baby_instance\.BASE_0\.s_countReg\[25\]
*747 manchester_baby_instance\.BASE_0\.s_countReg\[2\]
*748 manchester_baby_instance\.BASE_0\.s_countReg\[3\]
*749 manchester_baby_instance\.BASE_0\.s_countReg\[4\]
*750 manchester_baby_instance\.BASE_0\.s_countReg\[5\]
*751 manchester_baby_instance\.BASE_0\.s_countReg\[6\]
*752 manchester_baby_instance\.BASE_0\.s_countReg\[7\]
*753 manchester_baby_instance\.BASE_0\.s_countReg\[8\]
*754 manchester_baby_instance\.BASE_0\.s_countReg\[9\]
*755 manchester_baby_instance\.BASE_0\.s_tickNext
*756 manchester_baby_instance\.BASE_0\.s_tickReg
*757 manchester_baby_instance\.BASE_1\.s_bufferRegs\[0\]
*758 manchester_baby_instance\.BASE_1\.s_counterValue
*759 manchester_baby_instance\.BASE_1\.s_derivedClock
*760 manchester_baby_instance\.CIRCUIT_0\.ARITH_38\.dataB\[0\]
*761 manchester_baby_instance\.CIRCUIT_0\.ARITH_38\.dataB\[1\]
*762 manchester_baby_instance\.CIRCUIT_0\.ARITH_38\.dataB\[2\]
*763 manchester_baby_instance\.CIRCUIT_0\.ARITH_38\.dataB\[3\]
*764 manchester_baby_instance\.CIRCUIT_0\.ARITH_38\.dataB\[4\]
*765 manchester_baby_instance\.CIRCUIT_0\.Acc\.tick
*766 manchester_baby_instance\.CIRCUIT_0\.GATES_13\.input1
*767 manchester_baby_instance\.CIRCUIT_0\.GATES_13\.result
*768 manchester_baby_instance\.CIRCUIT_0\.IR\.q\[0\]
*769 manchester_baby_instance\.CIRCUIT_0\.IR\.q\[13\]
*770 manchester_baby_instance\.CIRCUIT_0\.IR\.q\[14\]
*771 manchester_baby_instance\.CIRCUIT_0\.IR\.q\[15\]
*772 manchester_baby_instance\.CIRCUIT_0\.IR\.q\[1\]
*773 manchester_baby_instance\.CIRCUIT_0\.IR\.q\[2\]
*774 manchester_baby_instance\.CIRCUIT_0\.IR\.q\[3\]
*775 manchester_baby_instance\.CIRCUIT_0\.IR\.q\[4\]
*776 manchester_baby_instance\.CIRCUIT_0\.MEMORY_44\.countValue\[0\]
*777 manchester_baby_instance\.CIRCUIT_0\.MEMORY_44\.countValue\[1\]
*778 manchester_baby_instance\.CIRCUIT_0\.MEMORY_44\.countValue\[2\]
*779 manchester_baby_instance\.ram_data_i_0
*780 manchester_baby_instance\.ram_data_i_1
*781 manchester_baby_instance\.ram_data_i_10
*782 manchester_baby_instance\.ram_data_i_11
*783 manchester_baby_instance\.ram_data_i_12
*784 manchester_baby_instance\.ram_data_i_13
*785 manchester_baby_instance\.ram_data_i_14
*786 manchester_baby_instance\.ram_data_i_15
*787 manchester_baby_instance\.ram_data_i_16
*788 manchester_baby_instance\.ram_data_i_17
*789 manchester_baby_instance\.ram_data_i_18
*790 manchester_baby_instance\.ram_data_i_19
*791 manchester_baby_instance\.ram_data_i_2
*792 manchester_baby_instance\.ram_data_i_20
*793 manchester_baby_instance\.ram_data_i_21
*794 manchester_baby_instance\.ram_data_i_22
*795 manchester_baby_instance\.ram_data_i_23
*796 manchester_baby_instance\.ram_data_i_24
*797 manchester_baby_instance\.ram_data_i_25
*798 manchester_baby_instance\.ram_data_i_26
*799 manchester_baby_instance\.ram_data_i_27
*800 manchester_baby_instance\.ram_data_i_28
*801 manchester_baby_instance\.ram_data_i_29
*802 manchester_baby_instance\.ram_data_i_3
*803 manchester_baby_instance\.ram_data_i_30
*804 manchester_baby_instance\.ram_data_i_31
*805 manchester_baby_instance\.ram_data_i_4
*806 manchester_baby_instance\.ram_data_i_5
*807 manchester_baby_instance\.ram_data_i_6
*808 manchester_baby_instance\.ram_data_i_7
*809 manchester_baby_instance\.ram_data_i_8
*810 manchester_baby_instance\.ram_data_i_9
*811 manchester_baby_instance\.ram_data_o_0
*812 manchester_baby_instance\.ram_data_o_1
*813 manchester_baby_instance\.ram_data_o_10
*814 manchester_baby_instance\.ram_data_o_11
*815 manchester_baby_instance\.ram_data_o_12
*816 manchester_baby_instance\.ram_data_o_13
*817 manchester_baby_instance\.ram_data_o_14
*818 manchester_baby_instance\.ram_data_o_15
*819 manchester_baby_instance\.ram_data_o_16
*820 manchester_baby_instance\.ram_data_o_17
*821 manchester_baby_instance\.ram_data_o_18
*822 manchester_baby_instance\.ram_data_o_19
*823 manchester_baby_instance\.ram_data_o_2
*824 manchester_baby_instance\.ram_data_o_20
*825 manchester_baby_instance\.ram_data_o_21
*826 manchester_baby_instance\.ram_data_o_22
*827 manchester_baby_instance\.ram_data_o_23
*828 manchester_baby_instance\.ram_data_o_24
*829 manchester_baby_instance\.ram_data_o_25
*830 manchester_baby_instance\.ram_data_o_26
*831 manchester_baby_instance\.ram_data_o_27
*832 manchester_baby_instance\.ram_data_o_28
*833 manchester_baby_instance\.ram_data_o_29
*834 manchester_baby_instance\.ram_data_o_3
*835 manchester_baby_instance\.ram_data_o_30
*836 manchester_baby_instance\.ram_data_o_31
*837 manchester_baby_instance\.ram_data_o_4
*838 manchester_baby_instance\.ram_data_o_5
*839 manchester_baby_instance\.ram_data_o_6
*840 manchester_baby_instance\.ram_data_o_7
*841 manchester_baby_instance\.ram_data_o_8
*842 manchester_baby_instance\.ram_data_o_9
*843 net1
*844 net10
*845 net11
*846 net12
*847 net13
*848 net14
*849 net15
*850 net16
*851 net17
*852 net18
*853 net19
*854 net2
*855 net20
*856 net21
*857 net22
*858 net24
*859 net25
*860 net27
*861 net28
*862 net29
*863 net3
*864 net30
*865 net33
*866 net34
*867 net35
*868 net36
*869 net37
*870 net38
*871 net39
*872 net4
*873 net40
*874 net42
*875 net43
*876 net44
*877 net45
*878 net46
*879 net48
*880 net49
*881 net5
*882 net50
*883 net52
*884 net54
*885 net55
*886 net56
*887 net58
*888 net59
*889 net6
*890 net60
*891 net61
*892 net62
*893 net63
*894 net65
*895 net67
*896 net68
*897 net69
*898 net7
*899 net70
*900 net71
*901 net72
*902 net73
*903 net74
*904 net75
*905 net76
*906 net77
*907 net8
*908 net9
*909 FILLER_0_0_109
*910 FILLER_0_0_113
*911 FILLER_0_0_125
*912 FILLER_0_0_137
*913 FILLER_0_0_141
*914 FILLER_0_0_15
*915 FILLER_0_0_153
*916 FILLER_0_0_165
*917 FILLER_0_0_169
*918 FILLER_0_0_181
*919 FILLER_0_0_193
*920 FILLER_0_0_197
*921 FILLER_0_0_209
*922 FILLER_0_0_221
*923 FILLER_0_0_225
*924 FILLER_0_0_237
*925 FILLER_0_0_249
*926 FILLER_0_0_253
*927 FILLER_0_0_265
*928 FILLER_0_0_27
*929 FILLER_0_0_277
*930 FILLER_0_0_281
*931 FILLER_0_0_29
*932 FILLER_0_0_293
*933 FILLER_0_0_3
*934 FILLER_0_0_305
*935 FILLER_0_0_309
*936 FILLER_0_0_321
*937 FILLER_0_0_333
*938 FILLER_0_0_337
*939 FILLER_0_0_349
*940 FILLER_0_0_361
*941 FILLER_0_0_365
*942 FILLER_0_0_377
*943 FILLER_0_0_389
*944 FILLER_0_0_393
*945 FILLER_0_0_405
*946 FILLER_0_0_41
*947 FILLER_0_0_53
*948 FILLER_0_0_57
*949 FILLER_0_0_69
*950 FILLER_0_0_81
*951 FILLER_0_0_85
*952 FILLER_0_0_97
*953 FILLER_0_10_109
*954 FILLER_0_10_127
*955 FILLER_0_10_141
*956 FILLER_0_10_15
*957 FILLER_0_10_154
*958 FILLER_0_10_180
*959 FILLER_0_10_195
*960 FILLER_0_10_197
*961 FILLER_0_10_208
*962 FILLER_0_10_224
*963 FILLER_0_10_236
*964 FILLER_0_10_242
*965 FILLER_0_10_246
*966 FILLER_0_10_253
*967 FILLER_0_10_265
*968 FILLER_0_10_27
*969 FILLER_0_10_29
*970 FILLER_0_10_3
*971 FILLER_0_10_305
*972 FILLER_0_10_309
*973 FILLER_0_10_321
*974 FILLER_0_10_333
*975 FILLER_0_10_345
*976 FILLER_0_10_357
*977 FILLER_0_10_363
*978 FILLER_0_10_365
*979 FILLER_0_10_377
*980 FILLER_0_10_389
*981 FILLER_0_10_401
*982 FILLER_0_10_41
*983 FILLER_0_10_53
*984 FILLER_0_10_65
*985 FILLER_0_10_77
*986 FILLER_0_10_83
*987 FILLER_0_10_85
*988 FILLER_0_10_97
*989 FILLER_0_11_105
*990 FILLER_0_11_111
*991 FILLER_0_11_113
*992 FILLER_0_11_15
*993 FILLER_0_11_156
*994 FILLER_0_11_178
*995 FILLER_0_11_193
*996 FILLER_0_11_222
*997 FILLER_0_11_225
*998 FILLER_0_11_27
*999 FILLER_0_11_281
*1000 FILLER_0_11_292
*1001 FILLER_0_11_298
*1002 FILLER_0_11_3
*1003 FILLER_0_11_311
*1004 FILLER_0_11_317
*1005 FILLER_0_11_329
*1006 FILLER_0_11_335
*1007 FILLER_0_11_337
*1008 FILLER_0_11_349
*1009 FILLER_0_11_361
*1010 FILLER_0_11_373
*1011 FILLER_0_11_385
*1012 FILLER_0_11_39
*1013 FILLER_0_11_391
*1014 FILLER_0_11_393
*1015 FILLER_0_11_401
*1016 FILLER_0_11_51
*1017 FILLER_0_11_55
*1018 FILLER_0_11_57
*1019 FILLER_0_11_69
*1020 FILLER_0_11_81
*1021 FILLER_0_11_93
*1022 FILLER_0_12_101
*1023 FILLER_0_12_114
*1024 FILLER_0_12_126
*1025 FILLER_0_12_138
*1026 FILLER_0_12_141
*1027 FILLER_0_12_149
*1028 FILLER_0_12_15
*1029 FILLER_0_12_162
*1030 FILLER_0_12_177
*1031 FILLER_0_12_197
*1032 FILLER_0_12_209
*1033 FILLER_0_12_229
*1034 FILLER_0_12_237
*1035 FILLER_0_12_243
*1036 FILLER_0_12_251
*1037 FILLER_0_12_27
*1038 FILLER_0_12_275
*1039 FILLER_0_12_287
*1040 FILLER_0_12_29
*1041 FILLER_0_12_299
*1042 FILLER_0_12_3
*1043 FILLER_0_12_329
*1044 FILLER_0_12_341
*1045 FILLER_0_12_353
*1046 FILLER_0_12_361
*1047 FILLER_0_12_365
*1048 FILLER_0_12_377
*1049 FILLER_0_12_389
*1050 FILLER_0_12_401
*1051 FILLER_0_12_41
*1052 FILLER_0_12_53
*1053 FILLER_0_12_65
*1054 FILLER_0_12_77
*1055 FILLER_0_12_83
*1056 FILLER_0_12_85
*1057 FILLER_0_12_97
*1058 FILLER_0_13_107
*1059 FILLER_0_13_111
*1060 FILLER_0_13_113
*1061 FILLER_0_13_117
*1062 FILLER_0_13_125
*1063 FILLER_0_13_137
*1064 FILLER_0_13_143
*1065 FILLER_0_13_15
*1066 FILLER_0_13_151
*1067 FILLER_0_13_163
*1068 FILLER_0_13_167
*1069 FILLER_0_13_169
*1070 FILLER_0_13_181
*1071 FILLER_0_13_193
*1072 FILLER_0_13_199
*1073 FILLER_0_13_207
*1074 FILLER_0_13_219
*1075 FILLER_0_13_223
*1076 FILLER_0_13_225
*1077 FILLER_0_13_231
*1078 FILLER_0_13_237
*1079 FILLER_0_13_250
*1080 FILLER_0_13_262
*1081 FILLER_0_13_269
*1082 FILLER_0_13_27
*1083 FILLER_0_13_277
*1084 FILLER_0_13_281
*1085 FILLER_0_13_289
*1086 FILLER_0_13_295
*1087 FILLER_0_13_3
*1088 FILLER_0_13_307
*1089 FILLER_0_13_321
*1090 FILLER_0_13_333
*1091 FILLER_0_13_337
*1092 FILLER_0_13_349
*1093 FILLER_0_13_361
*1094 FILLER_0_13_373
*1095 FILLER_0_13_385
*1096 FILLER_0_13_39
*1097 FILLER_0_13_391
*1098 FILLER_0_13_393
*1099 FILLER_0_13_405
*1100 FILLER_0_13_51
*1101 FILLER_0_13_55
*1102 FILLER_0_13_57
*1103 FILLER_0_13_69
*1104 FILLER_0_13_81
*1105 FILLER_0_13_92
*1106 FILLER_0_14_118
*1107 FILLER_0_14_131
*1108 FILLER_0_14_146
*1109 FILLER_0_14_15
*1110 FILLER_0_14_158
*1111 FILLER_0_14_171
*1112 FILLER_0_14_179
*1113 FILLER_0_14_185
*1114 FILLER_0_14_193
*1115 FILLER_0_14_197
*1116 FILLER_0_14_205
*1117 FILLER_0_14_250
*1118 FILLER_0_14_253
*1119 FILLER_0_14_27
*1120 FILLER_0_14_271
*1121 FILLER_0_14_279
*1122 FILLER_0_14_288
*1123 FILLER_0_14_29
*1124 FILLER_0_14_3
*1125 FILLER_0_14_300
*1126 FILLER_0_14_307
*1127 FILLER_0_14_309
*1128 FILLER_0_14_315
*1129 FILLER_0_14_319
*1130 FILLER_0_14_335
*1131 FILLER_0_14_347
*1132 FILLER_0_14_359
*1133 FILLER_0_14_363
*1134 FILLER_0_14_365
*1135 FILLER_0_14_377
*1136 FILLER_0_14_389
*1137 FILLER_0_14_401
*1138 FILLER_0_14_41
*1139 FILLER_0_14_53
*1140 FILLER_0_14_65
*1141 FILLER_0_14_77
*1142 FILLER_0_14_83
*1143 FILLER_0_15_105
*1144 FILLER_0_15_111
*1145 FILLER_0_15_113
*1146 FILLER_0_15_117
*1147 FILLER_0_15_126
*1148 FILLER_0_15_134
*1149 FILLER_0_15_148
*1150 FILLER_0_15_15
*1151 FILLER_0_15_169
*1152 FILLER_0_15_191
*1153 FILLER_0_15_199
*1154 FILLER_0_15_211
*1155 FILLER_0_15_223
*1156 FILLER_0_15_228
*1157 FILLER_0_15_240
*1158 FILLER_0_15_250
*1159 FILLER_0_15_259
*1160 FILLER_0_15_27
*1161 FILLER_0_15_271
*1162 FILLER_0_15_279
*1163 FILLER_0_15_281
*1164 FILLER_0_15_3
*1165 FILLER_0_15_329
*1166 FILLER_0_15_335
*1167 FILLER_0_15_349
*1168 FILLER_0_15_361
*1169 FILLER_0_15_373
*1170 FILLER_0_15_385
*1171 FILLER_0_15_39
*1172 FILLER_0_15_391
*1173 FILLER_0_15_393
*1174 FILLER_0_15_405
*1175 FILLER_0_15_51
*1176 FILLER_0_15_55
*1177 FILLER_0_15_57
*1178 FILLER_0_15_69
*1179 FILLER_0_15_81
*1180 FILLER_0_16_109
*1181 FILLER_0_16_126
*1182 FILLER_0_16_132
*1183 FILLER_0_16_149
*1184 FILLER_0_16_15
*1185 FILLER_0_16_164
*1186 FILLER_0_16_176
*1187 FILLER_0_16_187
*1188 FILLER_0_16_195
*1189 FILLER_0_16_197
*1190 FILLER_0_16_209
*1191 FILLER_0_16_221
*1192 FILLER_0_16_229
*1193 FILLER_0_16_239
*1194 FILLER_0_16_248
*1195 FILLER_0_16_256
*1196 FILLER_0_16_27
*1197 FILLER_0_16_270
*1198 FILLER_0_16_282
*1199 FILLER_0_16_288
*1200 FILLER_0_16_29
*1201 FILLER_0_16_3
*1202 FILLER_0_16_301
*1203 FILLER_0_16_309
*1204 FILLER_0_16_320
*1205 FILLER_0_16_332
*1206 FILLER_0_16_344
*1207 FILLER_0_16_356
*1208 FILLER_0_16_365
*1209 FILLER_0_16_377
*1210 FILLER_0_16_389
*1211 FILLER_0_16_401
*1212 FILLER_0_16_41
*1213 FILLER_0_16_53
*1214 FILLER_0_16_65
*1215 FILLER_0_16_77
*1216 FILLER_0_16_83
*1217 FILLER_0_16_85
*1218 FILLER_0_16_97
*1219 FILLER_0_17_113
*1220 FILLER_0_17_125
*1221 FILLER_0_17_137
*1222 FILLER_0_17_149
*1223 FILLER_0_17_15
*1224 FILLER_0_17_161
*1225 FILLER_0_17_167
*1226 FILLER_0_17_178
*1227 FILLER_0_17_190
*1228 FILLER_0_17_198
*1229 FILLER_0_17_206
*1230 FILLER_0_17_219
*1231 FILLER_0_17_223
*1232 FILLER_0_17_225
*1233 FILLER_0_17_237
*1234 FILLER_0_17_249
*1235 FILLER_0_17_261
*1236 FILLER_0_17_27
*1237 FILLER_0_17_274
*1238 FILLER_0_17_293
*1239 FILLER_0_17_3
*1240 FILLER_0_17_304
*1241 FILLER_0_17_316
*1242 FILLER_0_17_335
*1243 FILLER_0_17_343
*1244 FILLER_0_17_355
*1245 FILLER_0_17_367
*1246 FILLER_0_17_379
*1247 FILLER_0_17_39
*1248 FILLER_0_17_391
*1249 FILLER_0_17_393
*1250 FILLER_0_17_405
*1251 FILLER_0_17_51
*1252 FILLER_0_17_55
*1253 FILLER_0_17_57
*1254 FILLER_0_17_69
*1255 FILLER_0_17_81
*1256 FILLER_0_18_106
*1257 FILLER_0_18_114
*1258 FILLER_0_18_123
*1259 FILLER_0_18_130
*1260 FILLER_0_18_138
*1261 FILLER_0_18_141
*1262 FILLER_0_18_149
*1263 FILLER_0_18_15
*1264 FILLER_0_18_171
*1265 FILLER_0_18_197
*1266 FILLER_0_18_201
*1267 FILLER_0_18_228
*1268 FILLER_0_18_248
*1269 FILLER_0_18_253
*1270 FILLER_0_18_264
*1271 FILLER_0_18_27
*1272 FILLER_0_18_273
*1273 FILLER_0_18_285
*1274 FILLER_0_18_29
*1275 FILLER_0_18_291
*1276 FILLER_0_18_3
*1277 FILLER_0_18_303
*1278 FILLER_0_18_307
*1279 FILLER_0_18_309
*1280 FILLER_0_18_321
*1281 FILLER_0_18_360
*1282 FILLER_0_18_365
*1283 FILLER_0_18_377
*1284 FILLER_0_18_389
*1285 FILLER_0_18_401
*1286 FILLER_0_18_41
*1287 FILLER_0_18_53
*1288 FILLER_0_18_65
*1289 FILLER_0_18_77
*1290 FILLER_0_19_111
*1291 FILLER_0_19_113
*1292 FILLER_0_19_129
*1293 FILLER_0_19_138
*1294 FILLER_0_19_15
*1295 FILLER_0_19_150
*1296 FILLER_0_19_159
*1297 FILLER_0_19_167
*1298 FILLER_0_19_182
*1299 FILLER_0_19_197
*1300 FILLER_0_19_209
*1301 FILLER_0_19_221
*1302 FILLER_0_19_225
*1303 FILLER_0_19_237
*1304 FILLER_0_19_249
*1305 FILLER_0_19_268
*1306 FILLER_0_19_27
*1307 FILLER_0_19_276
*1308 FILLER_0_19_281
*1309 FILLER_0_19_297
*1310 FILLER_0_19_3
*1311 FILLER_0_19_324
*1312 FILLER_0_19_342
*1313 FILLER_0_19_354
*1314 FILLER_0_19_366
*1315 FILLER_0_19_378
*1316 FILLER_0_19_39
*1317 FILLER_0_19_390
*1318 FILLER_0_19_393
*1319 FILLER_0_19_405
*1320 FILLER_0_19_51
*1321 FILLER_0_19_55
*1322 FILLER_0_19_57
*1323 FILLER_0_19_69
*1324 FILLER_0_19_81
*1325 FILLER_0_19_89
*1326 FILLER_0_19_99
*1327 FILLER_0_1_105
*1328 FILLER_0_1_111
*1329 FILLER_0_1_113
*1330 FILLER_0_1_125
*1331 FILLER_0_1_137
*1332 FILLER_0_1_149
*1333 FILLER_0_1_15
*1334 FILLER_0_1_161
*1335 FILLER_0_1_167
*1336 FILLER_0_1_169
*1337 FILLER_0_1_181
*1338 FILLER_0_1_193
*1339 FILLER_0_1_205
*1340 FILLER_0_1_217
*1341 FILLER_0_1_223
*1342 FILLER_0_1_225
*1343 FILLER_0_1_237
*1344 FILLER_0_1_249
*1345 FILLER_0_1_261
*1346 FILLER_0_1_27
*1347 FILLER_0_1_273
*1348 FILLER_0_1_279
*1349 FILLER_0_1_281
*1350 FILLER_0_1_293
*1351 FILLER_0_1_3
*1352 FILLER_0_1_305
*1353 FILLER_0_1_317
*1354 FILLER_0_1_329
*1355 FILLER_0_1_335
*1356 FILLER_0_1_337
*1357 FILLER_0_1_349
*1358 FILLER_0_1_361
*1359 FILLER_0_1_373
*1360 FILLER_0_1_385
*1361 FILLER_0_1_39
*1362 FILLER_0_1_391
*1363 FILLER_0_1_393
*1364 FILLER_0_1_405
*1365 FILLER_0_1_51
*1366 FILLER_0_1_55
*1367 FILLER_0_1_57
*1368 FILLER_0_1_69
*1369 FILLER_0_1_81
*1370 FILLER_0_1_93
*1371 FILLER_0_20_112
*1372 FILLER_0_20_120
*1373 FILLER_0_20_125
*1374 FILLER_0_20_129
*1375 FILLER_0_20_15
*1376 FILLER_0_20_153
*1377 FILLER_0_20_165
*1378 FILLER_0_20_177
*1379 FILLER_0_20_188
*1380 FILLER_0_20_197
*1381 FILLER_0_20_209
*1382 FILLER_0_20_228
*1383 FILLER_0_20_242
*1384 FILLER_0_20_250
*1385 FILLER_0_20_253
*1386 FILLER_0_20_268
*1387 FILLER_0_20_27
*1388 FILLER_0_20_280
*1389 FILLER_0_20_286
*1390 FILLER_0_20_29
*1391 FILLER_0_20_291
*1392 FILLER_0_20_296
*1393 FILLER_0_20_3
*1394 FILLER_0_20_332
*1395 FILLER_0_20_339
*1396 FILLER_0_20_351
*1397 FILLER_0_20_363
*1398 FILLER_0_20_365
*1399 FILLER_0_20_377
*1400 FILLER_0_20_389
*1401 FILLER_0_20_401
*1402 FILLER_0_20_41
*1403 FILLER_0_20_53
*1404 FILLER_0_20_65
*1405 FILLER_0_20_77
*1406 FILLER_0_20_85
*1407 FILLER_0_20_98
*1408 FILLER_0_21_113
*1409 FILLER_0_21_123
*1410 FILLER_0_21_135
*1411 FILLER_0_21_15
*1412 FILLER_0_21_156
*1413 FILLER_0_21_169
*1414 FILLER_0_21_177
*1415 FILLER_0_21_182
*1416 FILLER_0_21_193
*1417 FILLER_0_21_197
*1418 FILLER_0_21_204
*1419 FILLER_0_21_212
*1420 FILLER_0_21_218
*1421 FILLER_0_21_225
*1422 FILLER_0_21_234
*1423 FILLER_0_21_245
*1424 FILLER_0_21_257
*1425 FILLER_0_21_261
*1426 FILLER_0_21_267
*1427 FILLER_0_21_27
*1428 FILLER_0_21_279
*1429 FILLER_0_21_281
*1430 FILLER_0_21_293
*1431 FILLER_0_21_3
*1432 FILLER_0_21_305
*1433 FILLER_0_21_319
*1434 FILLER_0_21_344
*1435 FILLER_0_21_356
*1436 FILLER_0_21_368
*1437 FILLER_0_21_380
*1438 FILLER_0_21_39
*1439 FILLER_0_21_393
*1440 FILLER_0_21_405
*1441 FILLER_0_21_51
*1442 FILLER_0_21_55
*1443 FILLER_0_21_57
*1444 FILLER_0_21_69
*1445 FILLER_0_21_92
*1446 FILLER_0_22_106
*1447 FILLER_0_22_122
*1448 FILLER_0_22_132
*1449 FILLER_0_22_147
*1450 FILLER_0_22_15
*1451 FILLER_0_22_151
*1452 FILLER_0_22_165
*1453 FILLER_0_22_169
*1454 FILLER_0_22_178
*1455 FILLER_0_22_183
*1456 FILLER_0_22_200
*1457 FILLER_0_22_208
*1458 FILLER_0_22_220
*1459 FILLER_0_22_224
*1460 FILLER_0_22_239
*1461 FILLER_0_22_250
*1462 FILLER_0_22_266
*1463 FILLER_0_22_27
*1464 FILLER_0_22_278
*1465 FILLER_0_22_285
*1466 FILLER_0_22_29
*1467 FILLER_0_22_293
*1468 FILLER_0_22_3
*1469 FILLER_0_22_304
*1470 FILLER_0_22_309
*1471 FILLER_0_22_315
*1472 FILLER_0_22_319
*1473 FILLER_0_22_323
*1474 FILLER_0_22_333
*1475 FILLER_0_22_348
*1476 FILLER_0_22_360
*1477 FILLER_0_22_365
*1478 FILLER_0_22_377
*1479 FILLER_0_22_389
*1480 FILLER_0_22_401
*1481 FILLER_0_22_41
*1482 FILLER_0_22_53
*1483 FILLER_0_22_65
*1484 FILLER_0_22_77
*1485 FILLER_0_22_82
*1486 FILLER_0_22_94
*1487 FILLER_0_23_105
*1488 FILLER_0_23_111
*1489 FILLER_0_23_118
*1490 FILLER_0_23_130
*1491 FILLER_0_23_136
*1492 FILLER_0_23_149
*1493 FILLER_0_23_15
*1494 FILLER_0_23_161
*1495 FILLER_0_23_167
*1496 FILLER_0_23_177
*1497 FILLER_0_23_190
*1498 FILLER_0_23_202
*1499 FILLER_0_23_223
*1500 FILLER_0_23_225
*1501 FILLER_0_23_27
*1502 FILLER_0_23_272
*1503 FILLER_0_23_277
*1504 FILLER_0_23_290
*1505 FILLER_0_23_298
*1506 FILLER_0_23_3
*1507 FILLER_0_23_304
*1508 FILLER_0_23_312
*1509 FILLER_0_23_316
*1510 FILLER_0_23_328
*1511 FILLER_0_23_337
*1512 FILLER_0_23_349
*1513 FILLER_0_23_361
*1514 FILLER_0_23_373
*1515 FILLER_0_23_385
*1516 FILLER_0_23_39
*1517 FILLER_0_23_391
*1518 FILLER_0_23_393
*1519 FILLER_0_23_405
*1520 FILLER_0_23_51
*1521 FILLER_0_23_55
*1522 FILLER_0_23_57
*1523 FILLER_0_23_69
*1524 FILLER_0_23_81
*1525 FILLER_0_23_93
*1526 FILLER_0_24_103
*1527 FILLER_0_24_110
*1528 FILLER_0_24_116
*1529 FILLER_0_24_122
*1530 FILLER_0_24_141
*1531 FILLER_0_24_15
*1532 FILLER_0_24_151
*1533 FILLER_0_24_163
*1534 FILLER_0_24_167
*1535 FILLER_0_24_175
*1536 FILLER_0_24_187
*1537 FILLER_0_24_195
*1538 FILLER_0_24_197
*1539 FILLER_0_24_205
*1540 FILLER_0_24_217
*1541 FILLER_0_24_229
*1542 FILLER_0_24_248
*1543 FILLER_0_24_253
*1544 FILLER_0_24_261
*1545 FILLER_0_24_27
*1546 FILLER_0_24_282
*1547 FILLER_0_24_29
*1548 FILLER_0_24_3
*1549 FILLER_0_24_301
*1550 FILLER_0_24_307
*1551 FILLER_0_24_317
*1552 FILLER_0_24_329
*1553 FILLER_0_24_341
*1554 FILLER_0_24_353
*1555 FILLER_0_24_361
*1556 FILLER_0_24_365
*1557 FILLER_0_24_377
*1558 FILLER_0_24_389
*1559 FILLER_0_24_401
*1560 FILLER_0_24_41
*1561 FILLER_0_24_53
*1562 FILLER_0_24_65
*1563 FILLER_0_24_77
*1564 FILLER_0_24_82
*1565 FILLER_0_24_85
*1566 FILLER_0_24_99
*1567 FILLER_0_25_107
*1568 FILLER_0_25_113
*1569 FILLER_0_25_119
*1570 FILLER_0_25_126