* NGSPICE file created from openlane_manchester_baby.ext - technology: sky130A

* Black-box entry subcircuit for sky130_fd_sc_hd__decap_6 abstract view
.subckt sky130_fd_sc_hd__decap_6 VGND VNB VPB VPWR
.ends

* Black-box entry subcircuit for sky130_ef_sc_hd__decap_12 abstract view
.subckt sky130_ef_sc_hd__decap_12 VGND VPWR VPB VNB
.ends

* Black-box entry subcircuit for sky130_fd_sc_hd__tapvpwrvgnd_1 abstract view
.subckt sky130_fd_sc_hd__tapvpwrvgnd_1 VGND VPWR
.ends

* Black-box entry subcircuit for sky130_fd_sc_hd__dfrtp_2 abstract view
.subckt sky130_fd_sc_hd__dfrtp_2 CLK D RESET_B VGND VNB VPB VPWR Q
.ends

* Black-box entry subcircuit for sky130_fd_sc_hd__decap_3 abstract view
.subckt sky130_fd_sc_hd__decap_3 VGND VNB VPB VPWR
.ends

* Black-box entry subcircuit for sky130_fd_sc_hd__clkbuf_1 abstract view
.subckt sky130_fd_sc_hd__clkbuf_1 A VGND VNB VPB VPWR X
.ends

* Black-box entry subcircuit for sky130_fd_sc_hd__fill_2 abstract view
.subckt sky130_fd_sc_hd__fill_2 VGND VNB VPB VPWR
.ends

* Black-box entry subcircuit for sky130_fd_sc_hd__a31o_1 abstract view
.subckt sky130_fd_sc_hd__a31o_1 A1 A2 A3 B1 VGND VNB VPB VPWR X
.ends

* Black-box entry subcircuit for sky130_fd_sc_hd__dfrtp_1 abstract view
.subckt sky130_fd_sc_hd__dfrtp_1 CLK D RESET_B VGND VNB VPB VPWR Q
.ends

* Black-box entry subcircuit for sky130_fd_sc_hd__inv_2 abstract view
.subckt sky130_fd_sc_hd__inv_2 A VGND VNB VPB VPWR Y
.ends

* Black-box entry subcircuit for sky130_fd_sc_hd__decap_8 abstract view
.subckt sky130_fd_sc_hd__decap_8 VGND VNB VPB VPWR
.ends

* Black-box entry subcircuit for sky130_fd_sc_hd__mux2_1 abstract view
.subckt sky130_fd_sc_hd__mux2_1 A0 A1 S VGND VNB VPB VPWR X
.ends

* Black-box entry subcircuit for sky130_fd_sc_hd__o21a_1 abstract view
.subckt sky130_fd_sc_hd__o21a_1 A1 A2 B1 VGND VNB VPB VPWR X
.ends

* Black-box entry subcircuit for sky130_fd_sc_hd__xnor2_1 abstract view
.subckt sky130_fd_sc_hd__xnor2_1 A B VGND VNB VPB VPWR Y
.ends

* Black-box entry subcircuit for sky130_fd_sc_hd__a32o_1 abstract view
.subckt sky130_fd_sc_hd__a32o_1 A1 A2 A3 B1 B2 VGND VNB VPB VPWR X
.ends

* Black-box entry subcircuit for sky130_fd_sc_hd__ebufn_8 abstract view
.subckt sky130_fd_sc_hd__ebufn_8 A TE_B VGND VNB VPB VPWR Z
.ends

* Black-box entry subcircuit for sky130_fd_sc_hd__dlxtn_1 abstract view
.subckt sky130_fd_sc_hd__dlxtn_1 D GATE_N VGND VNB VPB VPWR Q
.ends

* Black-box entry subcircuit for sky130_fd_sc_hd__buf_4 abstract view
.subckt sky130_fd_sc_hd__buf_4 A VGND VNB VPB VPWR X
.ends

* Black-box entry subcircuit for sky130_fd_sc_hd__nand4b_2 abstract view
.subckt sky130_fd_sc_hd__nand4b_2 A_N B C D VGND VNB VPB VPWR Y
.ends

* Black-box entry subcircuit for sky130_fd_sc_hd__fill_1 abstract view
.subckt sky130_fd_sc_hd__fill_1 VGND VNB VPB VPWR
.ends

* Black-box entry subcircuit for sky130_fd_sc_hd__nor2_1 abstract view
.subckt sky130_fd_sc_hd__nor2_1 A B VGND VNB VPB VPWR Y
.ends

* Black-box entry subcircuit for sky130_fd_sc_hd__a311o_1 abstract view
.subckt sky130_fd_sc_hd__a311o_1 A1 A2 A3 B1 C1 VGND VNB VPB VPWR X
.ends

* Black-box entry subcircuit for sky130_fd_sc_hd__dlxtn_2 abstract view
.subckt sky130_fd_sc_hd__dlxtn_2 D GATE_N VGND VNB VPB VPWR Q
.ends

* Black-box entry subcircuit for sky130_fd_sc_hd__decap_4 abstract view
.subckt sky130_fd_sc_hd__decap_4 VGND VNB VPB VPWR
.ends

* Black-box entry subcircuit for sky130_fd_sc_hd__nand2_1 abstract view
.subckt sky130_fd_sc_hd__nand2_1 A B VGND VNB VPB VPWR Y
.ends

* Black-box entry subcircuit for sky130_fd_sc_hd__buf_2 abstract view
.subckt sky130_fd_sc_hd__buf_2 A VGND VNB VPB VPWR X
.ends

* Black-box entry subcircuit for sky130_fd_sc_hd__dfxtp_1 abstract view
.subckt sky130_fd_sc_hd__dfxtp_1 CLK D VGND VNB VPB VPWR Q
.ends

* Black-box entry subcircuit for sky130_fd_sc_hd__clkbuf_4 abstract view
.subckt sky130_fd_sc_hd__clkbuf_4 A VGND VNB VPB VPWR X
.ends

* Black-box entry subcircuit for sky130_fd_sc_hd__and2b_1 abstract view
.subckt sky130_fd_sc_hd__and2b_1 A_N B VGND VNB VPB VPWR X
.ends

* Black-box entry subcircuit for sky130_fd_sc_hd__o21ai_1 abstract view
.subckt sky130_fd_sc_hd__o21ai_1 A1 A2 B1 VGND VNB VPB VPWR Y
.ends

* Black-box entry subcircuit for sky130_fd_sc_hd__xor2_1 abstract view
.subckt sky130_fd_sc_hd__xor2_1 A B VGND VNB VPB VPWR X
.ends

* Black-box entry subcircuit for sky130_fd_sc_hd__or2b_1 abstract view
.subckt sky130_fd_sc_hd__or2b_1 A B_N VGND VNB VPB VPWR X
.ends

* Black-box entry subcircuit for sky130_fd_sc_hd__and3_1 abstract view
.subckt sky130_fd_sc_hd__and3_1 A B C VGND VNB VPB VPWR X
.ends

* Black-box entry subcircuit for sky130_fd_sc_hd__dlygate4sd3_1 abstract view
.subckt sky130_fd_sc_hd__dlygate4sd3_1 A VGND VNB VPB VPWR X
.ends

* Black-box entry subcircuit for sky130_fd_sc_hd__or2_1 abstract view
.subckt sky130_fd_sc_hd__or2_1 A B VGND VNB VPB VPWR X
.ends

* Black-box entry subcircuit for sky130_fd_sc_hd__and4bb_2 abstract view
.subckt sky130_fd_sc_hd__and4bb_2 A_N B_N C D VGND VNB VPB VPWR X
.ends

* Black-box entry subcircuit for sky130_fd_sc_hd__o211ai_1 abstract view
.subckt sky130_fd_sc_hd__o211ai_1 A1 A2 B1 C1 VGND VNB VPB VPWR Y
.ends

* Black-box entry subcircuit for sky130_fd_sc_hd__or4_1 abstract view
.subckt sky130_fd_sc_hd__or4_1 A B C D VGND VNB VPB VPWR X
.ends

* Black-box entry subcircuit for sky130_fd_sc_hd__clkbuf_16 abstract view
.subckt sky130_fd_sc_hd__clkbuf_16 A VGND VNB VPB VPWR X
.ends

* Black-box entry subcircuit for sky130_fd_sc_hd__a21oi_2 abstract view
.subckt sky130_fd_sc_hd__a21oi_2 A1 A2 B1 VGND VNB VPB VPWR Y
.ends

* Black-box entry subcircuit for sky130_fd_sc_hd__clkbuf_2 abstract view
.subckt sky130_fd_sc_hd__clkbuf_2 A VGND VNB VPB VPWR X
.ends

* Black-box entry subcircuit for sky130_fd_sc_hd__o22a_1 abstract view
.subckt sky130_fd_sc_hd__o22a_1 A1 A2 B1 B2 VGND VNB VPB VPWR X
.ends

* Black-box entry subcircuit for sky130_fd_sc_hd__or3_1 abstract view
.subckt sky130_fd_sc_hd__or3_1 A B C VGND VNB VPB VPWR X
.ends

* Black-box entry subcircuit for sky130_fd_sc_hd__and3b_1 abstract view
.subckt sky130_fd_sc_hd__and3b_1 A_N B C VGND VNB VPB VPWR X
.ends

* Black-box entry subcircuit for sky130_fd_sc_hd__xnor2_2 abstract view
.subckt sky130_fd_sc_hd__xnor2_2 A B VGND VNB VPB VPWR Y
.ends

* Black-box entry subcircuit for sky130_fd_sc_hd__a31oi_4 abstract view
.subckt sky130_fd_sc_hd__a31oi_4 A1 A2 A3 B1 VGND VNB VPB VPWR Y
.ends

* Black-box entry subcircuit for sky130_fd_sc_hd__and2_1 abstract view
.subckt sky130_fd_sc_hd__and2_1 A B VGND VNB VPB VPWR X
.ends

* Black-box entry subcircuit for sky130_fd_sc_hd__a22o_1 abstract view
.subckt sky130_fd_sc_hd__a22o_1 A1 A2 B1 B2 VGND VNB VPB VPWR X
.ends

* Black-box entry subcircuit for sky130_fd_sc_hd__o31a_2 abstract view
.subckt sky130_fd_sc_hd__o31a_2 A1 A2 A3 B1 VGND VNB VPB VPWR X
.ends

* Black-box entry subcircuit for sky130_fd_sc_hd__a211o_1 abstract view
.subckt sky130_fd_sc_hd__a211o_1 A1 A2 B1 C1 VGND VNB VPB VPWR X
.ends

* Black-box entry subcircuit for sky130_fd_sc_hd__o21ba_1 abstract view
.subckt sky130_fd_sc_hd__o21ba_1 A1 A2 B1_N VGND VNB VPB VPWR X
.ends

* Black-box entry subcircuit for sky130_fd_sc_hd__a221o_1 abstract view
.subckt sky130_fd_sc_hd__a221o_1 A1 A2 B1 B2 C1 VGND VNB VPB VPWR X
.ends

* Black-box entry subcircuit for sky130_fd_sc_hd__and2_2 abstract view
.subckt sky130_fd_sc_hd__and2_2 A B VGND VNB VPB VPWR X
.ends

* Black-box entry subcircuit for sky130_fd_sc_hd__dfrtp_4 abstract view
.subckt sky130_fd_sc_hd__dfrtp_4 CLK D RESET_B VGND VNB VPB VPWR Q
.ends

* Black-box entry subcircuit for sky130_fd_sc_hd__o31a_1 abstract view
.subckt sky130_fd_sc_hd__o31a_1 A1 A2 A3 B1 VGND VNB VPB VPWR X
.ends

* Black-box entry subcircuit for sky130_fd_sc_hd__a21o_1 abstract view
.subckt sky130_fd_sc_hd__a21o_1 A1 A2 B1 VGND VNB VPB VPWR X
.ends

* Black-box entry subcircuit for sky130_fd_sc_hd__o31ai_1 abstract view
.subckt sky130_fd_sc_hd__o31ai_1 A1 A2 A3 B1 VGND VNB VPB VPWR Y
.ends

* Black-box entry subcircuit for sky130_fd_sc_hd__a21oi_1 abstract view
.subckt sky130_fd_sc_hd__a21oi_1 A1 A2 B1 VGND VNB VPB VPWR Y
.ends

* Black-box entry subcircuit for sky130_fd_sc_hd__or3b_1 abstract view
.subckt sky130_fd_sc_hd__or3b_1 A B C_N VGND VNB VPB VPWR X
.ends

* Black-box entry subcircuit for sky130_fd_sc_hd__dlymetal6s2s_1 abstract view
.subckt sky130_fd_sc_hd__dlymetal6s2s_1 A VGND VNB VPB VPWR X
.ends

* Black-box entry subcircuit for sky130_fd_sc_hd__nand3_1 abstract view
.subckt sky130_fd_sc_hd__nand3_1 A B C VGND VNB VPB VPWR Y
.ends

* Black-box entry subcircuit for sky130_fd_sc_hd__a21boi_2 abstract view
.subckt sky130_fd_sc_hd__a21boi_2 A1 A2 B1_N VGND VNB VPB VPWR Y
.ends

* Black-box entry subcircuit for sky130_fd_sc_hd__nor2b_2 abstract view
.subckt sky130_fd_sc_hd__nor2b_2 A B_N VGND VNB VPB VPWR Y
.ends

* Black-box entry subcircuit for sky130_fd_sc_hd__and4b_1 abstract view
.subckt sky130_fd_sc_hd__and4b_1 A_N B C D VGND VNB VPB VPWR X
.ends

* Black-box entry subcircuit for sky130_fd_sc_hd__a31oi_1 abstract view
.subckt sky130_fd_sc_hd__a31oi_1 A1 A2 A3 B1 VGND VNB VPB VPWR Y
.ends

* Black-box entry subcircuit for sky130_fd_sc_hd__o2111a_1 abstract view
.subckt sky130_fd_sc_hd__o2111a_1 A1 A2 B1 C1 D1 VGND VNB VPB VPWR X
.ends

* Black-box entry subcircuit for sky130_fd_sc_hd__or4_2 abstract view
.subckt sky130_fd_sc_hd__or4_2 A B C D VGND VNB VPB VPWR X
.ends

* Black-box entry subcircuit for sky130_fd_sc_hd__o22ai_1 abstract view
.subckt sky130_fd_sc_hd__o22ai_1 A1 A2 B1 B2 VGND VNB VPB VPWR Y
.ends

* Black-box entry subcircuit for sky130_fd_sc_hd__a21boi_1 abstract view
.subckt sky130_fd_sc_hd__a21boi_1 A1 A2 B1_N VGND VNB VPB VPWR Y
.ends

* Black-box entry subcircuit for sky130_fd_sc_hd__o311a_1 abstract view
.subckt sky130_fd_sc_hd__o311a_1 A1 A2 A3 B1 C1 VGND VNB VPB VPWR X
.ends

* Black-box entry subcircuit for sky130_fd_sc_hd__nor3_2 abstract view
.subckt sky130_fd_sc_hd__nor3_2 A B C VGND VNB VPB VPWR Y
.ends

* Black-box entry subcircuit for sky130_fd_sc_hd__a41o_1 abstract view
.subckt sky130_fd_sc_hd__a41o_1 A1 A2 A3 A4 B1 VGND VNB VPB VPWR X
.ends

* Black-box entry subcircuit for sky130_fd_sc_hd__buf_1 abstract view
.subckt sky130_fd_sc_hd__buf_1 A VGND VNB VPB VPWR X
.ends

* Black-box entry subcircuit for sky130_fd_sc_hd__nand4b_4 abstract view
.subckt sky130_fd_sc_hd__nand4b_4 A_N B C D VGND VNB VPB VPWR Y
.ends

* Black-box entry subcircuit for sky130_fd_sc_hd__nor2_4 abstract view
.subckt sky130_fd_sc_hd__nor2_4 A B VGND VNB VPB VPWR Y
.ends

* Black-box entry subcircuit for sky130_fd_sc_hd__nand3b_4 abstract view
.subckt sky130_fd_sc_hd__nand3b_4 A_N B C VGND VNB VPB VPWR Y
.ends

* Black-box entry subcircuit for sky130_fd_sc_hd__a21bo_1 abstract view
.subckt sky130_fd_sc_hd__a21bo_1 A1 A2 B1_N VGND VNB VPB VPWR X
.ends

* Black-box entry subcircuit for sky130_fd_sc_hd__o21a_2 abstract view
.subckt sky130_fd_sc_hd__o21a_2 A1 A2 B1 VGND VNB VPB VPWR X
.ends

* Black-box entry subcircuit for sky130_fd_sc_hd__a31oi_2 abstract view
.subckt sky130_fd_sc_hd__a31oi_2 A1 A2 A3 B1 VGND VNB VPB VPWR Y
.ends

.subckt openlane_manchester_baby VGND VPWR clock logisim_clock_tree_0_out ram_addr_o[0]
+ ram_addr_o[1] ram_addr_o[2] ram_addr_o[3] ram_addr_o[4] ram_data_io[0] ram_data_io[10]
+ ram_data_io[11] ram_data_io[12] ram_data_io[13] ram_data_io[14] ram_data_io[15]
+ ram_data_io[16] ram_data_io[17] ram_data_io[18] ram_data_io[19] ram_data_io[1] ram_data_io[20]
+ ram_data_io[21] ram_data_io[22] ram_data_io[23] ram_data_io[24] ram_data_io[25]
+ ram_data_io[26] ram_data_io[27] ram_data_io[28] ram_data_io[29] ram_data_io[2] ram_data_io[30]
+ ram_data_io[31] ram_data_io[3] ram_data_io[4] ram_data_io[5] ram_data_io[6] ram_data_io[7]
+ ram_data_io[8] ram_data_io[9] ram_rw_en_o reset_i stop_lamp_o
XFILLER_0_27_82 VGND VGND VPWR VPWR sky130_fd_sc_hd__decap_6
XFILLER_0_43_81 VGND VPWR VPWR VGND sky130_ef_sc_hd__decap_12
XFILLER_0_17_266 VGND VPWR VPWR VGND sky130_ef_sc_hd__decap_12
XTAP_TAPCELL_ROW_9_159 VGND VPWR sky130_fd_sc_hd__tapvpwrvgnd_1
XFILLER_0_23_247 VGND VPWR VPWR VGND sky130_ef_sc_hd__decap_12
XFILLER_0_48_15 VGND VPWR VPWR VGND sky130_ef_sc_hd__decap_12
XFILLER_0_3_39 VGND VPWR VPWR VGND sky130_ef_sc_hd__decap_12
X_1270_ clknet_2_2__leaf_clock _0094_ _0043_ VGND VGND VPWR VPWR manchester_baby_instance.ram_data_o_12
+ sky130_fd_sc_hd__dfrtp_2
XFILLER_0_46_317 VGND VGND VPWR VPWR sky130_fd_sc_hd__decap_3
X_0985_ _0461_ VGND VGND VPWR VPWR _0060_ sky130_fd_sc_hd__clkbuf_1
XTAP_TAPCELL_ROW_14_183 VGND VPWR sky130_fd_sc_hd__tapvpwrvgnd_1
XFILLER_0_14_236 VGND VPWR VPWR VGND sky130_ef_sc_hd__decap_12
XFILLER_0_38_92 VGND VPWR VPWR VGND sky130_ef_sc_hd__decap_12
XFILLER_0_28_306 VGND VGND VPWR VPWR sky130_fd_sc_hd__fill_2
XTAP_TAPCELL_ROW_28_264 VGND VPWR sky130_fd_sc_hd__tapvpwrvgnd_1
X_0770_ _0196_ _0253_ _0266_ _0271_ VGND VGND VPWR VPWR _0272_ sky130_fd_sc_hd__a31o_1
X_1253_ clknet_2_1__leaf_clock _0077_ _0026_ VGND VGND VPWR VPWR manchester_baby_instance.CIRCUIT_0.ARITH_38.dataB\[0\]
+ sky130_fd_sc_hd__dfrtp_1
X_1184_ _0547_ VGND VGND VPWR VPWR _0047_ sky130_fd_sc_hd__inv_2
XFILLER_0_34_309 VGND VGND VPWR VPWR sky130_fd_sc_hd__decap_8
X_0968_ manchester_baby_instance.ram_data_o_31 _0445_ _0446_ VGND VGND VPWR VPWR _0447_
+ sky130_fd_sc_hd__mux2_1
XFILLER_0_6_277 VGND VPWR VPWR VGND sky130_ef_sc_hd__decap_12
XFILLER_0_6_222 VGND VGND VPWR VPWR sky130_fd_sc_hd__decap_8
XFILLER_0_19_317 VGND VGND VPWR VPWR sky130_fd_sc_hd__decap_3
X_0899_ _0379_ VGND VGND VPWR VPWR _0064_ sky130_fd_sc_hd__clkbuf_1
XFILLER_0_10_261 VGND VGND VPWR VPWR sky130_fd_sc_hd__decap_3
XTAP_TAPCELL_ROW_2_121 VGND VPWR sky130_fd_sc_hd__tapvpwrvgnd_1
XFILLER_0_10_294 VGND VPWR VPWR VGND sky130_ef_sc_hd__decap_12
XTAP_TAPCELL_ROW_25_245 VGND VPWR sky130_fd_sc_hd__tapvpwrvgnd_1
XFILLER_0_45_27 VGND VPWR VPWR VGND sky130_ef_sc_hd__decap_12
XFILLER_0_0_29 VGND VPWR VPWR VGND sky130_ef_sc_hd__decap_12
X_0822_ _0311_ _0315_ manchester_baby_instance.CIRCUIT_0.Acc.tick VGND VGND VPWR VPWR
+ _0316_ sky130_fd_sc_hd__o21a_1
XFILLER_0_16_309 VGND VGND VPWR VPWR sky130_fd_sc_hd__decap_8
XFILLER_0_3_225 VGND VPWR VPWR VGND sky130_ef_sc_hd__decap_12
XFILLER_0_10_74 VGND VGND VPWR VPWR sky130_fd_sc_hd__decap_8
X_0753_ _0158_ _0256_ VGND VGND VPWR VPWR _0257_ sky130_fd_sc_hd__xnor2_1
X_0684_ _0106_ _0180_ _0183_ _0193_ _0196_ VGND VGND VPWR VPWR _0197_ sky130_fd_sc_hd__a32o_1
X_1305_ manchester_baby_instance.ram_data_o_28 _0584_ VGND VGND VPWR VPWR ram_data_io[28]
+ sky130_fd_sc_hd__ebufn_8
X_1236_ ram_data_io[17] net12 VGND VGND VPWR VPWR manchester_baby_instance.ram_data_i_17
+ sky130_fd_sc_hd__dlxtn_1
X_1167_ net1 VGND VGND VPWR VPWR _0555_ sky130_fd_sc_hd__buf_4
X_1098_ _0535_ _0536_ _0537_ _0538_ VGND VGND VPWR VPWR _0580_ sky130_fd_sc_hd__nand4b_2
XFILLER_0_34_117 VGND VGND VPWR VPWR sky130_fd_sc_hd__fill_1
XFILLER_0_30_301 VGND VGND VPWR VPWR sky130_fd_sc_hd__fill_1
XTAP_TAPCELL_ROW_30_270 VGND VPWR sky130_fd_sc_hd__tapvpwrvgnd_1
XFILLER_0_19_158 VGND VGND VPWR VPWR sky130_fd_sc_hd__decap_8
XTAP_TAPCELL_ROW_22_226 VGND VPWR sky130_fd_sc_hd__tapvpwrvgnd_1
XPHY_EDGE_ROW_8_Left_58 VGND VGND VPWR VPWR sky130_fd_sc_hd__decap_3
XFILLER_0_48_209 VGND VPWR VPWR VGND sky130_ef_sc_hd__decap_12
XTAP_TAPCELL_ROW_44_351 VGND VPWR sky130_fd_sc_hd__tapvpwrvgnd_1
XTAP_TAPCELL_ROW_36_307 VGND VPWR sky130_fd_sc_hd__tapvpwrvgnd_1
XFILLER_0_8_317 VGND VGND VPWR VPWR sky130_fd_sc_hd__decap_3
X_1021_ _0173_ _0400_ VGND VGND VPWR VPWR _0492_ sky130_fd_sc_hd__nor2_1
XFILLER_0_12_301 VGND VGND VPWR VPWR sky130_fd_sc_hd__decap_6
XFILLER_0_16_139 VGND VGND VPWR VPWR sky130_fd_sc_hd__fill_1
XFILLER_0_24_150 VGND VGND VPWR VPWR sky130_fd_sc_hd__decap_3
X_0805_ _0239_ _0294_ _0300_ _0301_ _0229_ VGND VGND VPWR VPWR _0302_ sky130_fd_sc_hd__a32o_1
X_0736_ _0140_ _0155_ VGND VGND VPWR VPWR _0242_ sky130_fd_sc_hd__nor2_1
X_0667_ _0107_ _0108_ _0176_ _0177_ _0179_ VGND VGND VPWR VPWR _0180_ sky130_fd_sc_hd__a311o_1
X_0598_ _0109_ _0110_ VGND VGND VPWR VPWR _0111_ sky130_fd_sc_hd__nor2_1
X_1219_ ram_data_io[0] net10 VGND VGND VPWR VPWR manchester_baby_instance.ram_data_i_0
+ sky130_fd_sc_hd__dlxtn_2
XFILLER_0_15_183 VGND VPWR VPWR VGND sky130_ef_sc_hd__decap_12
XTAP_TAPCELL_ROW_41_332 VGND VPWR sky130_fd_sc_hd__tapvpwrvgnd_1
XFILLER_0_38_286 VGND VGND VPWR VPWR sky130_fd_sc_hd__fill_2
XFILLER_0_38_253 VGND VGND VPWR VPWR sky130_fd_sc_hd__decap_6
X_1004_ _0204_ _0470_ _0475_ _0477_ VGND VGND VPWR VPWR _0478_ sky130_fd_sc_hd__a31o_1
XFILLER_0_29_220 VGND VGND VPWR VPWR sky130_fd_sc_hd__decap_4
XFILLER_0_44_289 VGND VPWR VPWR VGND sky130_ef_sc_hd__decap_12
XFILLER_0_12_197 VGND VPWR VPWR VGND sky130_ef_sc_hd__decap_12
X_0719_ _0163_ _0216_ VGND VGND VPWR VPWR _0227_ sky130_fd_sc_hd__nand2_1
XFILLER_0_35_278 VGND VGND VPWR VPWR sky130_fd_sc_hd__fill_2
XFILLER_0_35_223 VGND VGND VPWR VPWR sky130_fd_sc_hd__fill_1
XFILLER_0_35_212 VGND VGND VPWR VPWR sky130_fd_sc_hd__decap_6
Xoutput7 net7 VGND VGND VPWR VPWR ram_addr_o[4] sky130_fd_sc_hd__buf_2
XFILLER_0_41_237 VGND VPWR VPWR VGND sky130_ef_sc_hd__decap_12
XFILLER_0_43_93 VGND VPWR VPWR VGND sky130_ef_sc_hd__decap_12
XFILLER_0_17_278 VGND VGND VPWR VPWR sky130_fd_sc_hd__fill_2
XPHY_EDGE_ROW_37_Left_87 VGND VGND VPWR VPWR sky130_fd_sc_hd__decap_3
XFILLER_0_2_109 VGND VPWR VPWR VGND sky130_ef_sc_hd__decap_12
XFILLER_0_23_259 VGND VGND VPWR VPWR sky130_fd_sc_hd__decap_6
XFILLER_0_48_27 VGND VGND VPWR VPWR sky130_fd_sc_hd__fill_1
XFILLER_0_46_307 VGND VGND VPWR VPWR sky130_fd_sc_hd__fill_1
X_0984_ manchester_baby_instance.ram_data_o_29 _0460_ _0446_ VGND VGND VPWR VPWR _0461_
+ sky130_fd_sc_hd__mux2_1
XTAP_TAPCELL_ROW_14_184 VGND VPWR sky130_fd_sc_hd__tapvpwrvgnd_1
XFILLER_0_14_248 VGND VGND VPWR VPWR sky130_fd_sc_hd__decap_4
XFILLER_0_22_292 VGND VPWR VPWR VGND sky130_ef_sc_hd__decap_12
XFILLER_0_38_82 VGND VGND VPWR VPWR sky130_fd_sc_hd__fill_2
XFILLER_0_49_167 VGND VGND VPWR VPWR sky130_fd_sc_hd__fill_1
XFILLER_0_13_281 VGND VPWR VPWR VGND sky130_ef_sc_hd__decap_12
XFILLER_0_34_29 VGND VGND VPWR VPWR sky130_fd_sc_hd__decap_8
X_1252_ clknet_2_3__leaf_clock _0000_ VGND VGND VPWR VPWR manchester_baby_instance.CIRCUIT_0.Acc.tick
+ sky130_fd_sc_hd__dfxtp_1
X_1183_ _0547_ VGND VGND VPWR VPWR _0046_ sky130_fd_sc_hd__inv_2
XTAP_TAPCELL_ROW_19_210 VGND VPWR sky130_fd_sc_hd__tapvpwrvgnd_1
XFILLER_0_6_289 VGND VPWR VPWR VGND sky130_ef_sc_hd__decap_12
XFILLER_0_6_234 VGND VGND VPWR VPWR sky130_fd_sc_hd__decap_8
X_0967_ _0198_ VGND VGND VPWR VPWR _0446_ sky130_fd_sc_hd__clkbuf_4
XFILLER_0_49_81 VGND VGND VPWR VPWR sky130_fd_sc_hd__decap_3
X_0898_ net28 manchester_baby_instance.ram_data_i_1 _0372_ VGND VGND VPWR VPWR _0379_
+ sky130_fd_sc_hd__mux2_1
XPHY_EDGE_ROW_12_Right_12 VGND VGND VPWR VPWR sky130_fd_sc_hd__decap_3
XFILLER_0_4_83 VGND VGND VPWR VPWR sky130_fd_sc_hd__fill_1
XPHY_EDGE_ROW_21_Right_21 VGND VGND VPWR VPWR sky130_fd_sc_hd__decap_3
XTAP_TAPCELL_ROW_33_290 VGND VPWR sky130_fd_sc_hd__tapvpwrvgnd_1
XTAP_TAPCELL_ROW_25_246 VGND VPWR sky130_fd_sc_hd__tapvpwrvgnd_1
XFILLER_0_45_192 VGND VPWR VPWR VGND sky130_ef_sc_hd__decap_12
XPHY_EDGE_ROW_30_Right_30 VGND VGND VPWR VPWR sky130_fd_sc_hd__decap_3
XFILLER_0_45_39 VGND VPWR VPWR VGND sky130_ef_sc_hd__decap_12
X_0821_ manchester_baby_instance.CIRCUIT_0.MEMORY_44.countValue\[2\] _0102_ VGND VGND
+ VPWR VPWR _0315_ sky130_fd_sc_hd__and2b_1
X_0752_ _0140_ _0155_ _0153_ VGND VGND VPWR VPWR _0256_ sky130_fd_sc_hd__o21ai_1
XFILLER_0_3_237 VGND VPWR VPWR VGND sky130_ef_sc_hd__decap_12
X_0683_ _0195_ VGND VGND VPWR VPWR _0196_ sky130_fd_sc_hd__clkbuf_4
XPHY_EDGE_ROW_24_Left_74 VGND VGND VPWR VPWR sky130_fd_sc_hd__decap_3
X_1166_ _0550_ VGND VGND VPWR VPWR _0030_ sky130_fd_sc_hd__inv_2
X_1304_ manchester_baby_instance.ram_data_o_27 _0583_ VGND VGND VPWR VPWR ram_data_io[27]
+ sky130_fd_sc_hd__ebufn_8
X_1235_ ram_data_io[16] net12 VGND VGND VPWR VPWR manchester_baby_instance.ram_data_i_16
+ sky130_fd_sc_hd__dlxtn_1
X_1097_ _0535_ _0536_ _0537_ _0538_ VGND VGND VPWR VPWR _0579_ sky130_fd_sc_hd__nand4b_2
XTAP_TAPCELL_ROW_22_227 VGND VPWR sky130_fd_sc_hd__tapvpwrvgnd_1
XTAP_TAPCELL_ROW_30_271 VGND VPWR sky130_fd_sc_hd__tapvpwrvgnd_1
XFILLER_0_31_19 VGND VPWR VPWR VGND sky130_ef_sc_hd__decap_12
XFILLER_0_33_162 VGND VGND VPWR VPWR sky130_fd_sc_hd__fill_2
XTAP_TAPCELL_ROW_36_308 VGND VPWR sky130_fd_sc_hd__tapvpwrvgnd_1
X_1020_ _0491_ VGND VGND VPWR VPWR _0055_ sky130_fd_sc_hd__clkbuf_1
XTAP_TAPCELL_ROW_44_352 VGND VPWR sky130_fd_sc_hd__tapvpwrvgnd_1
XFILLER_0_8_307 VGND VGND VPWR VPWR sky130_fd_sc_hd__fill_1
X_0735_ manchester_baby_instance.ram_data_o_10 manchester_baby_instance.ram_data_i_10
+ VGND VGND VPWR VPWR _0241_ sky130_fd_sc_hd__and2b_1
XFILLER_0_16_107 VGND VGND VPWR VPWR sky130_fd_sc_hd__decap_8
XFILLER_0_16_129 VGND VGND VPWR VPWR sky130_fd_sc_hd__decap_4
XFILLER_0_21_85 VGND VGND VPWR VPWR sky130_fd_sc_hd__fill_2
X_0804_ _0124_ _0128_ VGND VGND VPWR VPWR _0301_ sky130_fd_sc_hd__xor2_1
X_0666_ _0178_ VGND VGND VPWR VPWR _0179_ sky130_fd_sc_hd__inv_2
X_0597_ manchester_baby_instance.ram_data_o_7 manchester_baby_instance.ram_data_i_7
+ VGND VGND VPWR VPWR _0110_ sky130_fd_sc_hd__and2b_1
X_1149_ net20 manchester_baby_instance.BASE_0.s_tickReg VGND VGND VPWR VPWR _0551_
+ sky130_fd_sc_hd__or2b_1
X_1218_ clknet_2_3__leaf_clock net18 VGND VGND VPWR VPWR manchester_baby_instance.BASE_0.s_tickReg
+ sky130_fd_sc_hd__dfxtp_1
XFILLER_0_1_51 VGND VGND VPWR VPWR sky130_fd_sc_hd__decap_4
XFILLER_0_27_3 VGND VPWR VPWR VGND sky130_ef_sc_hd__decap_12
XFILLER_0_15_140 VGND VGND VPWR VPWR sky130_fd_sc_hd__fill_1
XFILLER_0_42_29 VGND VPWR VPWR VGND sky130_ef_sc_hd__decap_12
XTAP_TAPCELL_ROW_41_333 VGND VPWR sky130_fd_sc_hd__tapvpwrvgnd_1
XFILLER_0_21_110 VGND VGND VPWR VPWR sky130_fd_sc_hd__fill_2
XFILLER_0_6_29 VGND VPWR VPWR VGND sky130_ef_sc_hd__decap_12
X_1003_ _0194_ _0467_ _0476_ VGND VGND VPWR VPWR _0477_ sky130_fd_sc_hd__and3_1
XFILLER_0_16_85 VGND VGND VPWR VPWR sky130_fd_sc_hd__decap_8
XFILLER_0_29_298 VGND VGND VPWR VPWR sky130_fd_sc_hd__decap_6
XFILLER_0_8_104 VGND VGND VPWR VPWR sky130_fd_sc_hd__decap_8
XPHY_EDGE_ROW_6_Right_6 VGND VGND VPWR VPWR sky130_fd_sc_hd__decap_3
XFILLER_0_12_187 VGND VGND VPWR VPWR sky130_fd_sc_hd__decap_8
X_0718_ manchester_baby_instance.ram_data_i_13 _0187_ VGND VGND VPWR VPWR _0226_ sky130_fd_sc_hd__nand2_1
X_0649_ manchester_baby_instance.ram_data_i_14 manchester_baby_instance.ram_data_o_14
+ VGND VGND VPWR VPWR _0162_ sky130_fd_sc_hd__or2b_1
XPHY_EDGE_ROW_11_Left_61 VGND VGND VPWR VPWR sky130_fd_sc_hd__decap_3
Xoutput8 net13 VGND VGND VPWR VPWR ram_rw_en_o sky130_fd_sc_hd__buf_2
XFILLER_0_41_249 VGND VPWR VPWR VGND sky130_ef_sc_hd__decap_12
XFILLER_0_49_305 VGND VGND VPWR VPWR sky130_fd_sc_hd__decap_3
XFILLER_0_32_249 VGND VGND VPWR VPWR sky130_fd_sc_hd__decap_3
XFILLER_0_4_195 VGND VGND VPWR VPWR sky130_fd_sc_hd__fill_1
XFILLER_0_31_293 VGND VGND VPWR VPWR sky130_fd_sc_hd__decap_8
XTAP_TAPCELL_ROW_8_150 VGND VPWR sky130_fd_sc_hd__tapvpwrvgnd_1
X_0983_ _0239_ _0442_ _0455_ _0459_ _0229_ VGND VGND VPWR VPWR _0460_ sky130_fd_sc_hd__a32o_1
XFILLER_0_13_42 VGND VGND VPWR VPWR sky130_fd_sc_hd__fill_2
XTAP_TAPCELL_ROW_14_185 VGND VPWR sky130_fd_sc_hd__tapvpwrvgnd_1
XFILLER_0_49_135 VGND VGND VPWR VPWR sky130_fd_sc_hd__decap_4
XFILLER_0_49_113 VGND VPWR VPWR VGND sky130_ef_sc_hd__decap_12
XFILLER_0_37_308 VGND VPWR VPWR VGND sky130_ef_sc_hd__decap_12
XFILLER_0_9_254 VGND VGND VPWR VPWR sky130_fd_sc_hd__fill_1
XFILLER_0_13_293 VGND VPWR VPWR VGND sky130_ef_sc_hd__decap_12
XFILLER_0_34_19 VGND VGND VPWR VPWR sky130_fd_sc_hd__decap_8
XFILLER_0_28_319 VGND VGND VPWR VPWR sky130_fd_sc_hd__fill_1
XTAP_TAPCELL_ROW_11_166 VGND VPWR sky130_fd_sc_hd__tapvpwrvgnd_1
X_1251_ clknet_2_3__leaf_clock net14 VGND VGND VPWR VPWR net2 sky130_fd_sc_hd__dfxtp_1
X_1182_ _0547_ VGND VGND VPWR VPWR _0045_ sky130_fd_sc_hd__inv_2
XTAP_TAPCELL_ROW_19_211 VGND VPWR sky130_fd_sc_hd__tapvpwrvgnd_1
X_0966_ _0106_ _0435_ _0436_ _0196_ _0444_ VGND VGND VPWR VPWR _0445_ sky130_fd_sc_hd__a32o_1
X_0897_ _0378_ VGND VGND VPWR VPWR _0065_ sky130_fd_sc_hd__clkbuf_1
XFILLER_0_6_246 VGND VGND VPWR VPWR sky130_fd_sc_hd__decap_6
XFILLER_0_6_202 VGND VGND VPWR VPWR sky130_fd_sc_hd__decap_4
XTAP_TAPCELL_ROW_33_291 VGND VPWR sky130_fd_sc_hd__tapvpwrvgnd_1
XTAP_TAPCELL_ROW_25_247 VGND VPWR sky130_fd_sc_hd__tapvpwrvgnd_1
XFILLER_0_36_171 VGND VGND VPWR VPWR sky130_fd_sc_hd__fill_1
X_0820_ _0312_ _0313_ VGND VGND VPWR VPWR _0314_ sky130_fd_sc_hd__nor2_1
XFILLER_0_3_249 VGND VPWR VPWR VGND sky130_ef_sc_hd__decap_12
XFILLER_0_3_205 VGND VPWR VPWR VGND sky130_ef_sc_hd__decap_12
X_0751_ manchester_baby_instance.ram_data_i_9 _0254_ VGND VGND VPWR VPWR _0255_ sky130_fd_sc_hd__nand2_1
X_1303_ manchester_baby_instance.ram_data_o_26 _0582_ VGND VGND VPWR VPWR ram_data_io[26]
+ sky130_fd_sc_hd__ebufn_8
X_0682_ _0194_ VGND VGND VPWR VPWR _0195_ sky130_fd_sc_hd__clkbuf_4
X_1165_ _0550_ VGND VGND VPWR VPWR _0029_ sky130_fd_sc_hd__inv_2
XFILLER_0_35_51 VGND VGND VPWR VPWR sky130_fd_sc_hd__decap_4
X_1096_ _0535_ _0536_ _0537_ _0538_ VGND VGND VPWR VPWR _0578_ sky130_fd_sc_hd__nand4b_2
X_1234_ ram_data_io[15] net11 VGND VGND VPWR VPWR manchester_baby_instance.ram_data_i_15
+ sky130_fd_sc_hd__dlxtn_1
XTAP_TAPCELL_ROW_22_228 VGND VPWR sky130_fd_sc_hd__tapvpwrvgnd_1
XFILLER_0_42_141 VGND VPWR VPWR VGND sky130_ef_sc_hd__decap_12
X_0949_ manchester_baby_instance.ram_data_o_29 manchester_baby_instance.ram_data_i_29
+ VGND VGND VPWR VPWR _0428_ sky130_fd_sc_hd__or2b_1
XTAP_TAPCELL_ROW_30_272 VGND VPWR sky130_fd_sc_hd__tapvpwrvgnd_1
XPHY_EDGE_ROW_41_Left_91 VGND VGND VPWR VPWR sky130_fd_sc_hd__decap_3
X_0734_ manchester_baby_instance.ram_data_i_11 _0232_ VGND VGND VPWR VPWR _0240_ sky130_fd_sc_hd__nand2_1
X_0665_ manchester_baby_instance.ram_data_o_18 manchester_baby_instance.ram_data_i_18
+ VGND VGND VPWR VPWR _0178_ sky130_fd_sc_hd__xnor2_1
XFILLER_0_21_64 VGND VGND VPWR VPWR sky130_fd_sc_hd__decap_6
X_0803_ _0118_ _0293_ VGND VGND VPWR VPWR _0300_ sky130_fd_sc_hd__nand2_1
X_0596_ manchester_baby_instance.ram_data_i_7 manchester_baby_instance.ram_data_o_7
+ VGND VGND VPWR VPWR _0109_ sky130_fd_sc_hd__and2b_1
XFILLER_0_46_83 VGND VGND VPWR VPWR sky130_fd_sc_hd__fill_1
X_1217_ clknet_2_3__leaf_clock _0076_ VGND VGND VPWR VPWR manchester_baby_instance.BASE_0.s_countReg\[2\]
+ sky130_fd_sc_hd__dfxtp_1
X_1079_ _0331_ VGND VGND VPWR VPWR _0533_ sky130_fd_sc_hd__buf_4
X_1148_ _0550_ VGND VGND VPWR VPWR _0021_ sky130_fd_sc_hd__inv_2
XFILLER_0_15_130 VGND VGND VPWR VPWR sky130_fd_sc_hd__fill_1
XFILLER_0_30_166 VGND VGND VPWR VPWR sky130_fd_sc_hd__decap_8
XFILLER_0_30_144 VGND VGND VPWR VPWR sky130_fd_sc_hd__decap_3
Xhold10 _0072_ VGND VGND VPWR VPWR net23 sky130_fd_sc_hd__dlygate4sd3_1
XTAP_TAPCELL_ROW_41_334 VGND VPWR sky130_fd_sc_hd__tapvpwrvgnd_1
XFILLER_0_38_266 VGND VPWR VPWR VGND sky130_ef_sc_hd__decap_12
XFILLER_0_21_100 VGND VGND VPWR VPWR sky130_fd_sc_hd__decap_4
XFILLER_0_21_122 VGND VGND VPWR VPWR sky130_fd_sc_hd__decap_6
X_1002_ manchester_baby_instance.ram_data_i_26 _0440_ VGND VGND VPWR VPWR _0476_ sky130_fd_sc_hd__nand2_1
XFILLER_0_29_277 VGND VGND VPWR VPWR sky130_fd_sc_hd__decap_3
XFILLER_0_12_133 VGND VGND VPWR VPWR sky130_fd_sc_hd__decap_6
X_0648_ manchester_baby_instance.ram_data_o_15 manchester_baby_instance.ram_data_i_15
+ VGND VGND VPWR VPWR _0161_ sky130_fd_sc_hd__and2b_1
X_0717_ _0225_ VGND VGND VPWR VPWR _0096_ sky130_fd_sc_hd__clkbuf_1
XFILLER_0_35_225 VGND VPWR VPWR VGND sky130_ef_sc_hd__decap_12
Xoutput9 net9 VGND VGND VPWR VPWR stop_lamp_o sky130_fd_sc_hd__clkbuf_4
XFILLER_0_9_3 VGND VPWR VPWR VGND sky130_ef_sc_hd__decap_12
XFILLER_0_27_63 VGND VGND VPWR VPWR sky130_fd_sc_hd__fill_2
XFILLER_0_49_317 VGND VGND VPWR VPWR sky130_fd_sc_hd__decap_3
XFILLER_0_43_51 VGND VGND VPWR VPWR sky130_fd_sc_hd__decap_4
XFILLER_0_4_141 VGND VPWR VPWR VGND sky130_ef_sc_hd__decap_12
XFILLER_0_17_225 VGND VGND VPWR VPWR sky130_fd_sc_hd__fill_2
XFILLER_0_7_51 VGND VGND VPWR VPWR sky130_fd_sc_hd__decap_4
XFILLER_0_48_29 VGND VPWR VPWR VGND sky130_ef_sc_hd__decap_12
XTAP_TAPCELL_ROW_8_151 VGND VPWR sky130_fd_sc_hd__tapvpwrvgnd_1
XFILLER_0_46_309 VGND VGND VPWR VPWR sky130_fd_sc_hd__decap_8
X_0982_ _0457_ _0458_ VGND VGND VPWR VPWR _0459_ sky130_fd_sc_hd__or2b_1
XTAP_TAPCELL_ROW_14_186 VGND VPWR sky130_fd_sc_hd__tapvpwrvgnd_1
XFILLER_0_1_111 VGND VGND VPWR VPWR sky130_fd_sc_hd__fill_1
XFILLER_0_49_169 VGND VPWR VPWR VGND sky130_ef_sc_hd__decap_12
XFILLER_0_49_125 VGND VGND VPWR VPWR sky130_fd_sc_hd__decap_4
XTAP_TAPCELL_ROW_11_167 VGND VPWR sky130_fd_sc_hd__tapvpwrvgnd_1
X_1250_ ram_data_io[31] net11 VGND VGND VPWR VPWR manchester_baby_instance.ram_data_i_31
+ sky130_fd_sc_hd__dlxtn_1
X_1181_ _0547_ VGND VGND VPWR VPWR _0044_ sky130_fd_sc_hd__inv_2
XTAP_TAPCELL_ROW_19_212 VGND VPWR sky130_fd_sc_hd__tapvpwrvgnd_1
XFILLER_0_46_139 VGND VGND VPWR VPWR sky130_fd_sc_hd__fill_1
XFILLER_0_42_301 VGND VGND VPWR VPWR sky130_fd_sc_hd__decap_6
X_0896_ net27 _0118_ _0372_ VGND VGND VPWR VPWR _0378_ sky130_fd_sc_hd__mux2_1
X_0965_ manchester_baby_instance.ram_data_i_31 _0443_ VGND VGND VPWR VPWR _0444_ sky130_fd_sc_hd__xor2_1
XFILLER_0_4_85 VGND VPWR VPWR VGND sky130_ef_sc_hd__decap_12
XFILLER_0_4_41 VGND VPWR VPWR VGND sky130_ef_sc_hd__decap_12
XFILLER_0_10_253 VGND VGND VPWR VPWR sky130_fd_sc_hd__decap_8
XFILLER_0_28_117 VGND VGND VPWR VPWR sky130_fd_sc_hd__decap_6
XFILLER_0_3_217 VGND VGND VPWR VPWR sky130_fd_sc_hd__decap_6
X_0750_ manchester_baby_instance.ram_data_i_8 _0253_ VGND VGND VPWR VPWR _0254_ sky130_fd_sc_hd__or2_1
XFILLER_0_24_301 VGND VGND VPWR VPWR sky130_fd_sc_hd__decap_6
X_0681_ _0104_ manchester_baby_instance.CIRCUIT_0.IR.q\[13\] _0103_ _0101_ VGND VGND
+ VPWR VPWR _0194_ sky130_fd_sc_hd__and4bb_2
X_1302_ manchester_baby_instance.ram_data_o_25 _0581_ VGND VGND VPWR VPWR ram_data_io[25]
+ sky130_fd_sc_hd__ebufn_8
XFILLER_0_19_31 VGND VGND VPWR VPWR sky130_fd_sc_hd__decap_4
X_1233_ ram_data_io[14] net11 VGND VGND VPWR VPWR manchester_baby_instance.ram_data_i_14
+ sky130_fd_sc_hd__dlxtn_1
X_1164_ _0550_ VGND VGND VPWR VPWR _0028_ sky130_fd_sc_hd__inv_2