*SPEF "ieee 1481-1999"
*DESIGN "openlane_manchester_baby"
*DATE "11:11:11 Fri 11 11, 1111"
*VENDOR "OpenRCX"
*PROGRAM "Parallel Extraction"
*VERSION "1.0"
*DESIGN_FLOW "NAME_SCOPE LOCAL" "PIN_CAP NONE"
*DIVIDER /
*DELIMITER :
*BUS_DELIMITER []
*T_UNIT 1 NS
*C_UNIT 1 PF
*R_UNIT 1 OHM
*L_UNIT 1 HENRY

*NAME_MAP
*3 clock
*4 logisim_clock_tree_0_out
*5 ram_addr_o[0]
*6 ram_addr_o[1]
*7 ram_addr_o[2]
*8 ram_addr_o[3]
*9 ram_addr_o[4]
*10 ram_data_io[0]
*11 ram_data_io[10]
*12 ram_data_io[11]
*13 ram_data_io[12]
*14 ram_data_io[13]
*15 ram_data_io[14]
*16 ram_data_io[15]
*17 ram_data_io[16]
*18 ram_data_io[17]
*19 ram_data_io[18]
*20 ram_data_io[19]
*21 ram_data_io[1]
*22 ram_data_io[20]
*23 ram_data_io[21]
*24 ram_data_io[22]
*25 ram_data_io[23]
*26 ram_data_io[24]
*27 ram_data_io[25]
*28 ram_data_io[26]
*29 ram_data_io[27]
*30 ram_data_io[28]
*31 ram_data_io[29]
*32 ram_data_io[2]
*33 ram_data_io[30]
*34 ram_data_io[31]
*35 ram_data_io[3]
*36 ram_data_io[4]
*37 ram_data_io[5]
*38 ram_data_io[6]
*39 ram_data_io[7]
*40 ram_data_io[8]
*41 ram_data_io[9]
*42 ram_rw_en_o
*43 reset_i
*44 stop_lamp_o
*45 _0000_
*46 _0001_
*47 _0002_
*48 _0003_
*49 _0004_
*50 _0005_
*51 _0006_
*52 _0007_
*53 _0008_
*54 _0009_
*55 _0010_
*56 _0011_
*57 _0012_
*58 _0013_
*59 _0014_
*60 _0015_
*61 _0016_
*62 _0017_
*63 _0018_
*64 _0019_
*65 _0020_
*66 _0021_
*67 _0022_
*68 _0023_
*69 _0024_
*70 _0025_
*71 _0026_
*72 _0027_
*73 _0028_
*74 _0029_
*75 _0030_
*76 _0031_
*77 _0032_
*78 _0033_
*79 _0034_
*80 _0035_
*81 _0036_
*82 _0037_
*83 _0038_
*84 _0039_
*85 _0040_
*86 _0041_
*87 _0042_
*88 _0043_
*89 _0044_
*90 _0045_
*91 _0046_
*92 _0047_
*93 _0048_
*94 _0049_
*95 _0050_
*96 _0051_
*97 _0052_
*98 _0053_
*99 _0054_
*100 _0055_
*101 _0056_
*102 _0057_
*103 _0058_
*104 _0059_
*105 _0060_
*106 _0061_
*107 _0062_
*108 _0063_
*109 _0064_
*110 _0065_
*111 _0066_
*112 _0067_
*113 _0068_
*114 _0069_
*115 _0070_
*116 _0071_
*117 _0072_
*118 _0073_
*119 _0074_
*120 _0075_
*121 _0076_
*122 _0077_
*123 _0078_
*124 _0079_
*125 _0080_
*126 _0081_
*127 _0082_
*128 _0083_
*129 _0084_
*130 _0085_
*131 _0086_
*132 _0087_
*133 _0088_
*134 _0089_
*135 _0090_
*136 _0091_
*137 _0092_
*138 _0093_
*139 _0094_
*140 _0095_
*141 _0096_
*142 _0097_
*143 _0098_
*144 _0099_
*145 _0100_
*146 _0101_
*147 _0102_
*148 _0103_
*149 _0104_
*150 _0105_
*151 _0106_
*152 _0107_
*153 _0108_
*154 _0109_
*155 _0110_
*156 _0111_
*157 _0112_
*158 _0113_
*159 _0114_
*160 _0115_
*161 _0116_
*162 _0117_
*163 _0118_
*164 _0119_
*165 _0120_
*166 _0121_
*167 _0122_
*168 _0123_
*169 _0124_
*170 _0125_
*171 _0126_
*172 _0127_
*173 _0128_
*174 _0129_
*175 _0130_
*176 _0131_
*177 _0132_
*178 _0133_
*179 _0134_
*180 _0135_
*181 _0136_
*182 _0137_
*183 _0138_
*184 _0139_
*185 _0140_
*186 _0141_
*187 _0142_
*188 _0143_
*189 _0144_
*190 _0145_
*191 _0146_
*192 _0147_
*193 _0148_
*194 _0149_
*195 _0150_
*196 _0151_
*197 _0152_
*198 _0153_
*199 _0154_
*200 _0155_
*201 _0156_
*202 _0157_
*203 _0158_
*204 _0159_
*205 _0160_
*206 _0161_
*207 _0162_
*208 _0163_
*209 _0164_
*210 _0165_
*211 _0166_
*212 _0167_
*213 _0168_
*214 _0169_
*215 _0170_
*216 _0171_
*217 _0172_
*218 _0173_
*219 _0174_
*220 _0175_
*221 _0176_
*222 _0177_
*223 _0178_
*224 _0179_
*225 _0180_
*226 _0181_
*227 _0182_
*228 _0183_
*229 _0184_
*230 _0185_
*231 _0186_
*232 _0187_
*233 _0188_
*234 _0189_
*235 _0190_
*236 _0191_
*237 _0192_
*238 _0193_
*239 _0194_
*240 _0195_
*241 _0196_
*242 _0197_
*243 _0198_
*244 _0199_
*245 _0200_
*246 _0201_
*247 _0202_
*248 _0203_
*249 _0204_
*250 _0205_
*251 _0206_
*252 _0207_
*253 _0208_
*254 _0209_
*255 _0210_
*256 _0211_
*257 _0212_
*258 _0213_
*259 _0214_
*260 _0215_
*261 _0216_
*262 _0217_
*263 _0218_
*264 _0219_
*265 _0220_
*266 _0221_
*267 _0222_
*268 _0223_
*269 _0224_
*270 _0225_
*271 _0226_
*272 _0227_
*273 _0228_
*274 _0229_
*275 _0230_
*276 _0231_
*277 _0232_
*278 _0233_
*279 _0234_
*280 _0235_
*281 _0236_
*282 _0237_
*283 _0238_
*284 _0239_
*285 _0240_
*286 _0241_
*287 _0242_
*288 _0243_
*289 _0244_
*290 _0245_
*291 _0246_
*292 _0247_
*293 _0248_
*294 _0249_
*295 _0250_
*296 _0251_
*297 _0252_
*298 _0253_
*299 _0254_
*300 _0255_
*301 _0256_
*302 _0257_
*303 _0258_
*304 _0259_
*305 _0260_
*306 _0261_
*307 _0262_
*308 _0263_
*309 _0264_
*310 _0265_
*311 _0266_
*312 _0267_
*313 _0268_
*314 _0269_
*315 _0270_
*316 _0271_
*317 _0272_
*318 _0273_
*319 _0274_
*320 _0275_
*321 _0276_
*322 _0277_
*323 _0278_
*324 _0279_
*325 _0280_
*326 _0281_
*327 _0282_
*328 _0283_
*329 _0284_
*330 _0285_
*331 _0286_
*332 _0287_
*333 _0288_
*334 _0289_
*335 _0290_
*336 _0291_
*337 _0292_
*338 _0293_
*339 _0294_
*340 _0295_
*341 _0296_
*342 _0297_
*343 _0298_
*344 _0299_
*345 _0300_
*346 _0301_
*347 _0302_
*348 _0303_
*349 _0304_
*350 _0305_
*351 _0306_
*352 _0307_
*353 _0308_
*354 _0309_
*355 _0310_
*356 _0311_
*357 _0312_
*358 _0313_
*359 _0314_
*360 _0315_
*361 _0316_
*362 _0317_
*363 _0318_
*364 _0319_
*365 _0320_
*366 _0321_
*367 _0322_
*368 _0323_
*369 _0324_
*370 _0325_
*371 _0326_
*372 _0327_
*373 _0328_
*374 _0329_
*375 _0330_
*376 _0331_
*377 _0332_
*378 _0333_
*379 _0334_
*380 _0335_
*381 _0336_
*382 _0337_
*383 _0338_
*384 _0339_
*385 _0340_
*386 _0341_
*387 _0342_
*388 _0343_
*389 _0344_
*390 _0345_
*391 _0346_
*392 _0347_
*393 _0348_
*394 _0349_
*395 _0350_
*396 _0351_
*397 _0352_
*398 _0353_
*399 _0354_
*400 _0355_
*401 _0356_
*402 _0357_
*403 _0358_
*404 _0359_
*405 _0360_
*406 _0361_
*407 _0362_
*408 _0363_
*409 _0364_
*410 _0365_
*411 _0366_
*412 _0367_
*413 _0368_
*414 _0369_
*415 _0370_
*416 _0371_
*417 _0372_
*418 _0373_
*419 _0374_
*420 _0375_
*421 _0376_
*422 _0377_
*423 _0378_
*424 _0379_
*425 _0380_
*426 _0381_
*427 _0382_
*428 _0383_
*429 _0384_
*430 _0385_
*431 _0386_
*432 _0387_
*433 _0388_
*434 _0389_
*435 _0390_
*436 _0391_
*437 _0392_
*438 _0393_
*439 _0394_
*440 _0395_
*441 _0396_
*442 _0397_
*443 _0398_
*444 _0399_
*445 _0400_
*446 _0401_
*447 _0402_
*448 _0403_
*449 _0404_
*450 _0405_
*451 _0406_
*452 _0407_
*453 _0408_
*454 _0409_
*455 _0410_
*456 _0411_
*457 _0412_
*458 _0413_
*459 _0414_
*460 _0415_
*461 _0416_
*462 _0417_
*463 _0418_
*464 _0419_
*465 _0420_
*466 _0421_
*467 _0422_
*468 _0423_
*469 _0424_
*470 _0425_
*471 _0426_
*472 _0427_
*473 _0428_
*474 _0429_
*475 _0430_
*476 _0431_
*477 _0432_
*478 _0433_
*479 _0434_
*480 _0435_
*481 _0436_
*482 _0437_
*483 _0438_
*484 _0439_
*485 _0440_
*486 _0441_
*487 _0442_
*488 _0443_
*489 _0444_
*490 _0445_
*491 _0446_
*492 _0447_
*493 _0448_
*494 _0449_
*495 _0450_
*496 _0451_
*497 _0452_
*498 _0453_
*499 _0454_
*500 _0455_
*501 _0456_
*502 _0457_
*503 _0458_
*504 _0459_
*505 _0460_
*506 _0461_
*507 _0462_
*508 _0463_
*509 _0464_
*510 _0465_
*511 _0466_
*512 _0467_
*513 _0468_
*514 _0469_
*515 _0470_
*516 _0471_
*517 _0472_
*518 _0473_
*519 _0474_
*520 _0475_
*521 _0476_
*522 _0477_
*523 _0478_
*524 _0479_
*525 _0480_
*526 _0481_
*527 _0482_
*528 _0483_
*529 _0484_
*530 _0485_
*531 _0486_
*532 _0487_
*533 _0488_
*534 _0489_
*535 _0490_
*536 _0491_
*537 _0492_
*538 _0493_
*539 _0494_
*540 _0495_
*541 _0496_
*542 _0497_
*543 _0498_
*544 _0499_
*545 _0500_
*546 _0501_
*547 _0502_
*548 _0503_
*549 _0504_
*550 _0505_
*551 _0506_
*552 _0507_
*553 _0508_
*554 _0509_
*555 _0510_
*556 _0511_
*557 _0512_
*558 _0513_
*559 _0514_
*560 _0515_
*561 _0516_
*562 _0517_
*563 _0518_
*564 _0519_
*565 _0520_
*566 _0521_
*567 _0522_
*568 _0523_
*569 _0524_
*570 _0525_
*571 _0526_
*572 _0527_
*573 _0528_
*574 _0529_
*575 _0530_
*576 _0531_
*577 _0532_
*578 _0533_
*579 _0534_
*580 _0535_
*581 _0536_
*582 _0537_
*583 _0538_
*584 _0539_
*585 _0540_
*586 _0541_
*587 _0542_
*588 _0543_
*589 _0544_
*590 _0545_
*591 _0546_
*592 _0547_
*593 _0548_
*594 _0549_
*595 _0550_
*596 _0551_
*597 _0552_
*598 _0553_
*599 _0554_
*600 _0555_
*601 _0556_
*602 _0557_
*603 _0558_
*604 _0559_
*605 _0560_
*606 _0561_
*607 _0562_
*608 _0563_
*609 _0564_
*610 _0565_
*611 _0566_
*612 _0567_
*613 _0568_
*614 _0569_
*615 _0570_
*616 _0571_
*617 _0572_
*618 _0573_
*619 _0574_
*620 _0575_
*621 _0576_
*622 _0577_
*623 _0578_
*624 _0579_
*625 _0580_
*626 _0581_
*627 _0582_
*628 _0583_
*629 _0584_
*630 _0585_
*631 _0586_
*632 _0587_
*633 clknet_0_clock
*634 clknet_2_0__leaf_clock
*635 clknet_2_1__leaf_clock
*636 clknet_2_2__leaf_clock
*637 clknet_2_3__leaf_clock
*638 manchester_baby_instance\.BASE_0\.s_countReg\[0\]
*639 manchester_baby_instance\.BASE_0\.s_countReg\[1\]
*640 manchester_baby_instance\.BASE_0\.s_countReg\[2\]
*641 manchester_baby_instance\.BASE_0\.s_tickNext
*642 manchester_baby_instance\.BASE_0\.s_tickReg
*643 manchester_baby_instance\.BASE_1\.s_bufferRegs\[0\]
*644 manchester_baby_instance\.BASE_1\.s_counterValue
*645 manchester_baby_instance\.BASE_1\.s_derivedClock
*646 manchester_baby_instance\.CIRCUIT_0\.ARITH_38\.dataB\[0\]
*647 manchester_baby_instance\.CIRCUIT_0\.ARITH_38\.dataB\[1\]
*648 manchester_baby_instance\.CIRCUIT_0\.ARITH_38\.dataB\[2\]
*649 manchester_baby_instance\.CIRCUIT_0\.ARITH_38\.dataB\[3\]
*650 manchester_baby_instance\.CIRCUIT_0\.ARITH_38\.dataB\[4\]
*651 manchester_baby_instance\.CIRCUIT_0\.Acc\.tick
*652 manchester_baby_instance\.CIRCUIT_0\.GATES_13\.result
*653 manchester_baby_instance\.CIRCUIT_0\.IR\.q\[0\]
*654 manchester_baby_instance\.CIRCUIT_0\.IR\.q\[13\]
*655 manchester_baby_instance\.CIRCUIT_0\.IR\.q\[14\]
*656 manchester_baby_instance\.CIRCUIT_0\.IR\.q\[15\]
*657 manchester_baby_instance\.CIRCUIT_0\.IR\.q\[1\]
*658 manchester_baby_instance\.CIRCUIT_0\.IR\.q\[2\]
*659 manchester_baby_instance\.CIRCUIT_0\.IR\.q\[3\]
*660 manchester_baby_instance\.CIRCUIT_0\.IR\.q\[4\]
*661 manchester_baby_instance\.CIRCUIT_0\.MEMORY_44\.countValue\[0\]
*662 manchester_baby_instance\.CIRCUIT_0\.MEMORY_44\.countValue\[1\]
*663 manchester_baby_instance\.CIRCUIT_0\.MEMORY_44\.countValue\[2\]
*664 manchester_baby_instance\.CIRCUIT_0\.MEMORY_44\.s_nextCounterValue\[0\]
*665 manchester_baby_instance\.CIRCUIT_0\.MEMORY_44\.s_nextCounterValue\[1\]
*666 manchester_baby_instance\.CIRCUIT_0\.MEMORY_44\.s_nextCounterValue\[2\]
*667 manchester_baby_instance\.ram_data_i_0
*668 manchester_baby_instance\.ram_data_i_1
*669 manchester_baby_instance\.ram_data_i_10
*670 manchester_baby_instance\.ram_data_i_11
*671 manchester_baby_instance\.ram_data_i_12
*672 manchester_baby_instance\.ram_data_i_13
*673 manchester_baby_instance\.ram_data_i_14
*674 manchester_baby_instance\.ram_data_i_15
*675 manchester_baby_instance\.ram_data_i_16
*676 manchester_baby_instance\.ram_data_i_17
*677 manchester_baby_instance\.ram_data_i_18
*678 manchester_baby_instance\.ram_data_i_19
*679 manchester_baby_instance\.ram_data_i_2
*680 manchester_baby_instance\.ram_data_i_20
*681 manchester_baby_instance\.ram_data_i_21
*682 manchester_baby_instance\.ram_data_i_22
*683 manchester_baby_instance\.ram_data_i_23
*684 manchester_baby_instance\.ram_data_i_24
*685 manchester_baby_instance\.ram_data_i_25
*686 manchester_baby_instance\.ram_data_i_26
*687 manchester_baby_instance\.ram_data_i_27
*688 manchester_baby_instance\.ram_data_i_28
*689 manchester_baby_instance\.ram_data_i_29
*690 manchester_baby_instance\.ram_data_i_3
*691 manchester_baby_instance\.ram_data_i_30
*692 manchester_baby_instance\.ram_data_i_31
*693 manchester_baby_instance\.ram_data_i_4
*694 manchester_baby_instance\.ram_data_i_5
*695 manchester_baby_instance\.ram_data_i_6
*696 manchester_baby_instance\.ram_data_i_7
*697 manchester_baby_instance\.ram_data_i_8
*698 manchester_baby_instance\.ram_data_i_9
*699 manchester_baby_instance\.ram_data_o_0
*700 manchester_baby_instance\.ram_data_o_1
*701 manchester_baby_instance\.ram_data_o_10
*702 manchester_baby_instance\.ram_data_o_11
*703 manchester_baby_instance\.ram_data_o_12
*704 manchester_baby_instance\.ram_data_o_13
*705 manchester_baby_instance\.ram_data_o_14
*706 manchester_baby_instance\.ram_data_o_15
*707 manchester_baby_instance\.ram_data_o_16
*708 manchester_baby_instance\.ram_data_o_17
*709 manchester_baby_instance\.ram_data_o_18
*710 manchester_baby_instance\.ram_data_o_19
*711 manchester_baby_instance\.ram_data_o_2
*712 manchester_baby_instance\.ram_data_o_20
*713 manchester_baby_instance\.ram_data_o_21
*714 manchester_baby_instance\.ram_data_o_22
*715 manchester_baby_instance\.ram_data_o_23
*716 manchester_baby_instance\.ram_data_o_24
*717 manchester_baby_instance\.ram_data_o_25
*718 manchester_baby_instance\.ram_data_o_26
*719 manchester_baby_instance\.ram_data_o_27
*720 manchester_baby_instance\.ram_data_o_28
*721 manchester_baby_instance\.ram_data_o_29
*722 manchester_baby_instance\.ram_data_o_3
*723 manchester_baby_instance\.ram_data_o_30
*724 manchester_baby_instance\.ram_data_o_31
*725 manchester_baby_instance\.ram_data_o_4
*726 manchester_baby_instance\.ram_data_o_5
*727 manchester_baby_instance\.ram_data_o_6
*728 manchester_baby_instance\.ram_data_o_7
*729 manchester_baby_instance\.ram_data_o_8
*730 manchester_baby_instance\.ram_data_o_9
*731 net1
*732 net10
*733 net11
*734 net12
*735 net13
*736 net14
*737 net15
*738 net16
*739 net17
*740 net18
*741 net19
*742 net2
*743 net20
*744 net21
*745 net22
*746 net23
*747 net24
*748 net25
*749 net26
*750 net27
*751 net28
*752 net29
*753 net3
*754 net30
*755 net31
*756 net4
*757 net5
*758 net6
*759 net7
*760 net8
*761 net9
*762 FILLER_0_0_109
*763 FILLER_0_0_113
*764 FILLER_0_0_125
*765 FILLER_0_0_137
*766 FILLER_0_0_141
*767 FILLER_0_0_15
*768 FILLER_0_0_153
*769 FILLER_0_0_165
*770 FILLER_0_0_169
*771 FILLER_0_0_181
*772 FILLER_0_0_193
*773 FILLER_0_0_197
*774 FILLER_0_0_209
*775 FILLER_0_0_221
*776 FILLER_0_0_225
*777 FILLER_0_0_237
*778 FILLER_0_0_249
*779 FILLER_0_0_253
*780 FILLER_0_0_265
*781 FILLER_0_0_27
*782 FILLER_0_0_277
*783 FILLER_0_0_281
*784 FILLER_0_0_29
*785 FILLER_0_0_293
*786 FILLER_0_0_3
*787 FILLER_0_0_305
*788 FILLER_0_0_309
*789 FILLER_0_0_317
*790 FILLER_0_0_41
*791 FILLER_0_0_53
*792 FILLER_0_0_57
*793 FILLER_0_0_69
*794 FILLER_0_0_81
*795 FILLER_0_0_85
*796 FILLER_0_0_97
*797 FILLER_0_10_111
*798 FILLER_0_10_135
*799 FILLER_0_10_139
*800 FILLER_0_10_141
*801 FILLER_0_10_15
*802 FILLER_0_10_153
*803 FILLER_0_10_176
*804 FILLER_0_10_192
*805 FILLER_0_10_221
*806 FILLER_0_10_227
*807 FILLER_0_10_249
*808 FILLER_0_10_253
*809 FILLER_0_10_261
*810 FILLER_0_10_27
*811 FILLER_0_10_270
*812 FILLER_0_10_282
*813 FILLER_0_10_294
*814 FILLER_0_10_3
*815 FILLER_0_10_306
*816 FILLER_0_10_309
*817 FILLER_0_10_317
*818 FILLER_0_10_74
*819 FILLER_0_10_82
*820 FILLER_0_10_93
*821 FILLER_0_11_105
*822 FILLER_0_11_111
*823 FILLER_0_11_113
*824 FILLER_0_11_121
*825 FILLER_0_11_126
*826 FILLER_0_11_134
*827 FILLER_0_11_148
*828 FILLER_0_11_15
*829 FILLER_0_11_167
*830 FILLER_0_11_172
*831 FILLER_0_11_195
*832 FILLER_0_11_201
*833 FILLER_0_11_223
*834 FILLER_0_11_256
*835 FILLER_0_11_27
*836 FILLER_0_11_274
*837 FILLER_0_11_281
*838 FILLER_0_11_293
*839 FILLER_0_11_3
*840 FILLER_0_11_305
*841 FILLER_0_11_317
*842 FILLER_0_11_39
*843 FILLER_0_11_51
*844 FILLER_0_11_55
*845 FILLER_0_11_57
*846 FILLER_0_11_66
*847 FILLER_0_11_70
*848 FILLER_0_11_91
*849 FILLER_0_12_107
*850 FILLER_0_12_119
*851 FILLER_0_12_133
*852 FILLER_0_12_139
*853 FILLER_0_12_141
*854 FILLER_0_12_149
*855 FILLER_0_12_15
*856 FILLER_0_12_156
*857 FILLER_0_12_168
*858 FILLER_0_12_174
*859 FILLER_0_12_187
*860 FILLER_0_12_195
*861 FILLER_0_12_197
*862 FILLER_0_12_209
*863 FILLER_0_12_22
*864 FILLER_0_12_228
*865 FILLER_0_12_232
*866 FILLER_0_12_238
*867 FILLER_0_12_250
*868 FILLER_0_12_253
*869 FILLER_0_12_261
*870 FILLER_0_12_27
*871 FILLER_0_12_277
*872 FILLER_0_12_289
*873 FILLER_0_12_29
*874 FILLER_0_12_3
*875 FILLER_0_12_301
*876 FILLER_0_12_307
*877 FILLER_0_12_309
*878 FILLER_0_12_317
*879 FILLER_0_12_49
*880 FILLER_0_12_61
*881 FILLER_0_12_75
*882 FILLER_0_12_83
*883 FILLER_0_12_85
*884 FILLER_0_12_89
*885 FILLER_0_12_95
*886 FILLER_0_13_101
*887 FILLER_0_13_106
*888 FILLER_0_13_11
*889 FILLER_0_13_134
*890 FILLER_0_13_146
*891 FILLER_0_13_158
*892 FILLER_0_13_166
*893 FILLER_0_13_169
*894 FILLER_0_13_180
*895 FILLER_0_13_192
*896 FILLER_0_13_204
*897 FILLER_0_13_216
*898 FILLER_0_13_225
*899 FILLER_0_13_252
*900 FILLER_0_13_265
*901 FILLER_0_13_274
*902 FILLER_0_13_281
*903 FILLER_0_13_293
*904 FILLER_0_13_3
*905 FILLER_0_13_305
*906 FILLER_0_13_317
*907 FILLER_0_13_42
*908 FILLER_0_13_90
*909 FILLER_0_14_104
*910 FILLER_0_14_116
*911 FILLER_0_14_122
*912 FILLER_0_14_137
*913 FILLER_0_14_141
*914 FILLER_0_14_15
*915 FILLER_0_14_153
*916 FILLER_0_14_162
*917 FILLER_0_14_166
*918 FILLER_0_14_223
*919 FILLER_0_14_231
*920 FILLER_0_14_236
*921 FILLER_0_14_248
*922 FILLER_0_14_253
*923 FILLER_0_14_260
*924 FILLER_0_14_266
*925 FILLER_0_14_27
*926 FILLER_0_14_271
*927 FILLER_0_14_283
*928 FILLER_0_14_29
*929 FILLER_0_14_295
*930 FILLER_0_14_3
*931 FILLER_0_14_307
*932 FILLER_0_14_309
*933 FILLER_0_14_317
*934 FILLER_0_14_41
*935 FILLER_0_14_53
*936 FILLER_0_14_57
*937 FILLER_0_14_70
*938 FILLER_0_14_82
*939 FILLER_0_14_88
*940 FILLER_0_14_96
*941 FILLER_0_15_102
*942 FILLER_0_15_110
*943 FILLER_0_15_113
*944 FILLER_0_15_125
*945 FILLER_0_15_130
*946 FILLER_0_15_140
*947 FILLER_0_15_15
*948 FILLER_0_15_155
*949 FILLER_0_15_159
*950 FILLER_0_15_166
*951 FILLER_0_15_169
*952 FILLER_0_15_175
*953 FILLER_0_15_179
*954 FILLER_0_15_183
*955 FILLER_0_15_20
*956 FILLER_0_15_207
*957 FILLER_0_15_221
*958 FILLER_0_15_237
*959 FILLER_0_15_249
*960 FILLER_0_15_25
*961 FILLER_0_15_256
*962 FILLER_0_15_267
*963 FILLER_0_15_279
*964 FILLER_0_15_281
*965 FILLER_0_15_293
*966 FILLER_0_15_3
*967 FILLER_0_15_305
*968 FILLER_0_15_31
*969 FILLER_0_15_317
*970 FILLER_0_15_70
*971 FILLER_0_16_107
*972 FILLER_0_16_115
*973 FILLER_0_16_129
*974 FILLER_0_16_139
*975 FILLER_0_16_141
*976 FILLER_0_16_149
*977 FILLER_0_16_158
*978 FILLER_0_16_165
*979 FILLER_0_16_171
*980 FILLER_0_16_177
*981 FILLER_0_16_181
*982 FILLER_0_16_194
*983 FILLER_0_16_204
*984 FILLER_0_16_226
*985 FILLER_0_16_235
*986 FILLER_0_16_243
*987 FILLER_0_16_253
*988 FILLER_0_16_269
*989 FILLER_0_16_281
*990 FILLER_0_16_293
*991 FILLER_0_16_3
*992 FILLER_0_16_305
*993 FILLER_0_16_309
*994 FILLER_0_16_317
*995 FILLER_0_16_38
*996 FILLER_0_16_66
*997 FILLER_0_16_85
*998 FILLER_0_16_93
*999 FILLER_0_17_107
*1000 FILLER_0_17_139
*1001 FILLER_0_17_15
*1002 FILLER_0_17_151
*1003 FILLER_0_17_163
*1004 FILLER_0_17_167
*1005 FILLER_0_17_182
*1006 FILLER_0_17_209
*1007 FILLER_0_17_21
*1008 FILLER_0_17_225
*1009 FILLER_0_17_248
*1010 FILLER_0_17_25
*1011 FILLER_0_17_254
*1012 FILLER_0_17_266
*1013 FILLER_0_17_278
*1014 FILLER_0_17_281
*1015 FILLER_0_17_293
*1016 FILLER_0_17_3
*1017 FILLER_0_17_305
*1018 FILLER_0_17_317
*1019 FILLER_0_17_37
*1020 FILLER_0_17_43
*1021 FILLER_0_17_57
*1022 FILLER_0_17_64
*1023 FILLER_0_17_76
*1024 FILLER_0_17_88
*1025 FILLER_0_17_99
*1026 FILLER_0_18_107
*1027 FILLER_0_18_119
*1028 FILLER_0_18_131
*1029 FILLER_0_18_139
*1030 FILLER_0_18_141
*1031 FILLER_0_18_157
*1032 FILLER_0_18_169
*1033 FILLER_0_18_179
*1034 FILLER_0_18_183
*1035 FILLER_0_18_197
*1036 FILLER_0_18_221
*1037 FILLER_0_18_227
*1038 FILLER_0_18_235
*1039 FILLER_0_18_241
*1040 FILLER_0_18_249
*1041 FILLER_0_18_253
*1042 FILLER_0_18_265
*1043 FILLER_0_18_277
*1044 FILLER_0_18_289
*1045 FILLER_0_18_3
*1046 FILLER_0_18_301
*1047 FILLER_0_18_307
*1048 FILLER_0_18_309
*1049 FILLER_0_18_317
*1050 FILLER_0_18_38
*1051 FILLER_0_18_60
*1052 FILLER_0_18_7
*1053 FILLER_0_18_71
*1054 FILLER_0_18_83
*1055 FILLER_0_18_85
*1056 FILLER_0_18_95
*1057 FILLER_0_19_100
*1058 FILLER_0_19_113
*1059 FILLER_0_19_117
*1060 FILLER_0_19_122
*1061 FILLER_0_19_134
*1062 FILLER_0_19_144
*1063 FILLER_0_19_15
*1064 FILLER_0_19_158
*1065 FILLER_0_19_166
*1066 FILLER_0_19_182
*1067 FILLER_0_19_19
*1068 FILLER_0_19_210
*1069 FILLER_0_19_218
*1070 FILLER_0_19_225
*1071 FILLER_0_19_237
*1072 FILLER_0_19_246
*1073 FILLER_0_19_250
*1074 FILLER_0_19_268
*1075 FILLER_0_19_272
*1076 FILLER_0_19_281
*1077 FILLER_0_19_293
*1078 FILLER_0_19_3
*1079 FILLER_0_19_305
*1080 FILLER_0_19_31
*1081 FILLER_0_19_317
*1082 FILLER_0_19_47
*1083 FILLER_0_19_57
*1084 FILLER_0_19_80
*1085 FILLER_0_1_105
*1086 FILLER_0_1_111
*1087 FILLER_0_1_113
*1088 FILLER_0_1_125
*1089 FILLER_0_1_137
*1090 FILLER_0_1_149
*1091 FILLER_0_1_15
*1092 FILLER_0_1_161
*1093 FILLER_0_1_167
*1094 FILLER_0_1_169
*1095 FILLER_0_1_181
*1096 FILLER_0_1_193
*1097 FILLER_0_1_205
*1098 FILLER_0_1_217
*1099 FILLER_0_1_223
*1100 FILLER_0_1_225
*1101 FILLER_0_1_237
*1102 FILLER_0_1_249
*1103 FILLER_0_1_261
*1104 FILLER_0_1_27
*1105 FILLER_0_1_273
*1106 FILLER_0_1_279
*1107 FILLER_0_1_281
*1108 FILLER_0_1_293
*1109 FILLER_0_1_3
*1110 FILLER_0_1_305
*1111 FILLER_0_1_317
*1112 FILLER_0_1_39
*1113 FILLER_0_1_51
*1114 FILLER_0_1_55
*1115 FILLER_0_1_57
*1116 FILLER_0_1_69
*1117 FILLER_0_1_81
*1118 FILLER_0_1_93
*1119 FILLER_0_20_138
*1120 FILLER_0_20_141
*1121 FILLER_0_20_149
*1122 FILLER_0_20_15
*1123 FILLER_0_20_157
*1124 FILLER_0_20_169
*1125 FILLER_0_20_174
*1126 FILLER_0_20_189
*1127 FILLER_0_20_195
*1128 FILLER_0_20_197
*1129 FILLER_0_20_248
*1130 FILLER_0_20_253
*1131 FILLER_0_20_262
*1132 FILLER_0_20_267
*1133 FILLER_0_20_27
*1134 FILLER_0_20_280
*1135 FILLER_0_20_29
*1136 FILLER_0_20_292
*1137 FILLER_0_20_3
*1138 FILLER_0_20_304
*1139 FILLER_0_20_309
*1140 FILLER_0_20_317
*1141 FILLER_0_20_37
*1142 FILLER_0_20_51
*1143 FILLER_0_20_65
*1144 FILLER_0_20_76
*1145 FILLER_0_20_85
*1146 FILLER_0_21_100
*1147 FILLER_0_21_110
*1148 FILLER_0_21_113
*1149 FILLER_0_21_122
*1150 FILLER_0_21_128
*1151 FILLER_0_21_13
*1152 FILLER_0_21_135
*1153 FILLER_0_21_145
*1154 FILLER_0_21_159
*1155 FILLER_0_21_167
*1156 FILLER_0_21_17
*1157 FILLER_0_21_202
*1158 FILLER_0_21_215
*1159 FILLER_0_21_223
*1160 FILLER_0_21_225
*1161 FILLER_0_21_242
*1162 FILLER_0_21_254
*1163 FILLER_0_21_262
*1164 FILLER_0_21_270
*1165 FILLER_0_21_277
*1166 FILLER_0_21_281
*1167 FILLER_0_21_293
*1168 FILLER_0_21_305
*1169 FILLER_0_21_317
*1170 FILLER_0_21_64
*1171 FILLER_0_21_76
*1172 FILLER_0_21_85
*1173 FILLER_0_22_101
*1174 FILLER_0_22_128
*1175 FILLER_0_22_139
*1176 FILLER_0_22_141
*1177 FILLER_0_22_163
*1178 FILLER_0_22_176
*1179 FILLER_0_22_189
*1180 FILLER_0_22_209
*1181 FILLER_0_22_217
*1182 FILLER_0_22_227
*1183 FILLER_0_22_242
*1184 FILLER_0_22_249
*1185 FILLER_0_22_275
*1186 FILLER_0_22_29
*1187 FILLER_0_22_292
*1188 FILLER_0_22_3
*1189 FILLER_0_22_304
*1190 FILLER_0_22_309
*1191 FILLER_0_22_317
*1192 FILLER_0_22_44
*1193 FILLER_0_22_64
*1194 FILLER_0_22_7
*1195 FILLER_0_22_81
*1196 FILLER_0_22_85
*1197 FILLER_0_23_113
*1198 FILLER_0_23_146
*1199 FILLER_0_23_15
*1200 FILLER_0_23_156
*1201 FILLER_0_23_163
*1202 FILLER_0_23_167
*1203 FILLER_0_23_169
*1204 FILLER_0_23_177
*1205 FILLER_0_23_201
*1206 FILLER_0_23_21
*1207 FILLER_0_23_211
*1208 FILLER_0_23_223
*1209 FILLER_0_23_235
*1210 FILLER_0_23_247
*1211 FILLER_0_23_259
*1212 FILLER_0_23_265
*1213 FILLER_0_23_277
*1214 FILLER_0_23_281
*1215 FILLER_0_23_296
*1216 FILLER_0_23_3
*1217 FILLER_0_23_308
*1218 FILLER_0_23_31
*1219 FILLER_0_23_43
*1220 FILLER_0_23_51
*1221 FILLER_0_23_55
*1222 FILLER_0_23_57
*1223 FILLER_0_23_81
*1224 FILLER_0_23_89
*1225 FILLER_0_24_107
*1226 FILLER_0_24_150
*1227 FILLER_0_24_18
*1228 FILLER_0_24_182
*1229 FILLER_0_24_191
*1230 FILLER_0_24_217
*1231 FILLER_0_24_223
*1232 FILLER_0_24_229
*1233 FILLER_0_24_251
*1234 FILLER_0_24_253
*1235 FILLER_0_24_26
*1236 FILLER_0_24_267
*1237 FILLER_0_24_271
*1238 FILLER_0_24_276
*1239 FILLER_0_24_282
*1240 FILLER_0_24_289
*1241 FILLER_0_24_29
*1242 FILLER_0_24_3
*1243 FILLER_0_24_301
*1244 FILLER_0_24_307
*1245 FILLER_0_24_309
*1246 FILLER_0_24_317
*1247 FILLER_0_24_58
*1248 FILLER_0_24_80
*1249 FILLER_0_24_91
*1250 FILLER_0_25_113
*1251 FILLER_0_25_164
*1252 FILLER_0_25_169
*1253 FILLER_0_25_175
*1254 FILLER_0_25_195
*1255 FILLER_0_25_203
*1256 FILLER_0_25_209
*1257 FILLER_0_25_225
*1258 FILLER_0_25_237
*1259 FILLER_0_25_241
*1260 FILLER_0_25_250
*1261 FILLER_0_25_258
*1262 FILLER_0_25_275
*1263 FILLER_0_25_279
*1264 FILLER_0_25_296
*1265 FILLER_0_25_3
*1266 FILLER_0_25_308
*1267 FILLER_0_25_46
*1268 FILLER_0_25_64
*1269 FILLER_0_25_72
*1270 FILLER_0_25_86
*1271 FILLER_0_25_9
*1272 FILLER_0_25_98
*1273 FILLER_0_26_111
*1274 FILLER_0_26_118
*1275 FILLER_0_26_144
*1276 FILLER_0_26_15
*1277 FILLER_0_26_152
*1278 FILLER_0_26_159
*1279 FILLER_0_26_171
*1280 FILLER_0_26_183
*1281 FILLER_0_26_204
*1282 FILLER_0_26_253
*1283 FILLER_0_26_27
*1284 FILLER_0_26_3
*1285 FILLER_0_26_300
*1286 FILLER_0_26_309
*1287 FILLER_0_26_317
*1288 FILLER_0_26_38
*1289 FILLER_0_26_46
*1290 FILLER_0_26_53
*1291 FILLER_0_26_61
*1292 FILLER_0_26_69
*1293 FILLER_0_26_77
*1294 FILLER_0_26_83
*1295 FILLER_0_27_109
*1296 FILLER_0_27_15
*1297 FILLER_0_27_167
*1298 FILLER_0_27_169
*1299 FILLER_0_27_184
*1300 FILLER_0_27_196
*1301 FILLER_0_27_201
*1302 FILLER_0_27_205
*1303 FILLER_0_27_218
*1304 FILLER_0_27_266
*1305 FILLER_0_27_27
*1306 FILLER_0_27_278
*1307 FILLER_0_27_281
*1308 FILLER_0_27_291
*1309 FILLER_0_27_3
*1310 FILLER_0_27_303
*1311 FILLER_0_27_315
*1312 FILLER_0_27_319
*1313 FILLER_0_27_48
*1314 FILLER_0_27_63
*1315 FILLER_0_27_70
*1316 FILLER_0_27_82
*1317 FILLER_0_27_97
*1318 FILLER_0_28_117
*1319 FILLER_0_28_123
*1320 FILLER_0_28_132
*1321 FILLER_0_28_141
*1322 FILLER_0_28_15
*1323 FILLER_0_28_153
*1324 FILLER_0_28_161
*1325 FILLER_0_28_218
*1326 FILLER_0_28_230
*1327 FILLER_0_28_245
*1328 FILLER_0_28_251
*1329 FILLER_0_28_253
*1330 FILLER_0_28_260
*1331 FILLER_0_28_27
*1332 FILLER_0_28_295
*1333 FILLER_0_28_299
*1334 FILLER_0_28_3
*1335 FILLER_0_28_306
*1336 FILLER_0_28_315
*1337 FILLER_0_28_319
*1338 FILLER_0_28_49
*1339 FILLER_0_28_53
*1340 FILLER_0_28_70
*1341 FILLER_0_28_90
*1342 FILLER_0_28_98
*1343 FILLER_0_29_101
*1344 FILLER_0_29_108
*1345 FILLER_0_29_120
*1346 FILLER_0_29_131
*1347 FILLER_0_29_15
*1348 FILLER_0_29_151
*1349 FILLER_0_29_169
*1350 FILLER_0_29_173
*1351 FILLER_0_29_185
*1352 FILLER_0_29_197
*1353 FILLER_0_29_201
*1354 FILLER_0_29_220
*1355 FILLER_0_29_237
*1356 FILLER_0_29_245
*1357 FILLER_0_29_277
*1358 FILLER_0_29_298
*1359 FILLER_0_29_3
*1360 FILLER_0_29_304
*1361 FILLER_0_29_308
*1362 FILLER_0_29_37
*1363 FILLER_0_29_49
*1364 FILLER_0_29_57
*1365 FILLER_0_29_65
*1366 FILLER_0_29_77
*1367 FILLER_0_2_109
*1368 FILLER_0_2_121
*1369 FILLER_0_2_133
*1370 FILLER_0_2_139
*1371 FILLER_0_2_141
*1372 FILLER_0_2_15
*1373 FILLER_0_2_153
*1374 FILLER_0_2_165
*1375 FILLER_0_2_177
*1376 FILLER_0_2_189
*1377 FILLER_0_2_195
*1378 FILLER_0_2_197
*1379 FILLER_0_2_209
*1380 FILLER_0_2_221
*1381 FILLER_0_2_233
*1382 FILLER_0_2_245
*1383 FILLER_0_2_251
*1384 FILLER_0_2_253
*1385 FILLER_0_2_265
*1386 FILLER_0_2_27
*1387 FILLER_0_2_277
*1388 FILLER_0_2_289
*1389 FILLER_0_2_29
*1390 FILLER_0_2_3
*1391 FILLER_0_2_301
*1392 FILLER_0_2_307
*1393 FILLER_0_2_309
*1394 FILLER_0_2_317
*1395 FILLER_0_2_41
*1396 FILLER_0_2_53
*1397 FILLER_0_2_65
*1398 FILLER_0_2_77
*1399 FILLER_0_2_83
*1400 FILLER_0_2_85
*1401 FILLER_0_2_97
*1402 FILLER_0_30_109
*1403 FILLER_0_30_144
*1404 FILLER_0_30_166
*1405 FILLER_0_30_180
*1406 FILLER_0_30_185
*1407 FILLER_0_30_189
*1408 FILLER_0_30_19
*1409 FILLER_0_30_203
*1410 FILLER_0_30_213
*1411 FILLER_0_30_225
*1412 FILLER_0_30_245
*1413 FILLER_0_30_251
*1414 FILLER_0_30_256
*1415 FILLER_0_30_268
*1416 FILLER_0_30_280
*1417 FILLER_0_30_289
*1418 FILLER_0_30_29
*1419 FILLER_0_30_297
*1420 FILLER_0_30_301
*1421 FILLER_0_30_307
*1422 FILLER_0_30_309
*1423 FILLER_0_30_317
*1424 FILLER_0_30_39
*1425 FILLER_0_30_63
*1426 FILLER_0_30_7
*1427 FILLER_0_30_75
*1428 FILLER_0_30_85
*1429 FILLER_0_30_97
*1430 FILLER_0_31_111
*1431 FILLER_0_31_113
*1432 FILLER_0_31_121
*1433 FILLER_0_31_126
*1434 FILLER_0_31_132
*1435 FILLER_0_31_141
*1436 FILLER_0_31_167
*1437 FILLER_0_31_169
*1438 FILLER_0_31_178
*1439 FILLER_0_31_19
*1440 FILLER_0_31_200
*1441 FILLER_0_31_225
*1442 FILLER_0_31_245
*1443 FILLER_0_31_269
*1444 FILLER_0_31_293
*1445 FILLER_0_31_301
*1446 FILLER_0_31_31
*1447 FILLER_0_31_318
*1448 FILLER_0_31_35
*1449 FILLER_0_31_44
*1450 FILLER_0_31_51
*1451 FILLER_0_31_55
*1452 FILLER_0_31_66
*1453 FILLER_0_31_7
*1454 FILLER_0_31_99
*1455 FILLER_0_32_100
*1456 FILLER_0_32_116
*1457 FILLER_0_32_131
*1458 FILLER_0_32_139
*1459 FILLER_0_32_141
*1460 FILLER_0_32_153
*1461 FILLER_0_32_161
*1462 FILLER_0_32_167
*1463 FILLER_0_32_171
*1464 FILLER_0_32_177
*1465 FILLER_0_32_189
*1466 FILLER_0_32_19
*1467 FILLER_0_32_193
*1468 FILLER_0_32_200
*1469 FILLER_0_32_24
*1470 FILLER_0_32_249
*1471 FILLER_0_32_253
*1472 FILLER_0_32_287
*1473 FILLER_0_32_307
*1474 FILLER_0_32_309
*1475 FILLER_0_32_317
*1476 FILLER_0_32_32
*1477 FILLER_0_32_38
*1478 FILLER_0_32_46
*1479 FILLER_0_32_58
*1480 FILLER_0_32_7
*1481 FILLER_0_32_80
*1482 FILLER_0_33_110
*1483 FILLER_0_33_116
*1484 FILLER_0_33_133
*1485 FILLER_0_33_162
*1486 FILLER_0_33_167
*1487 FILLER_0_33_178
*1488 FILLER_0_33_202
*1489 FILLER_0_33_218
*1490 FILLER_0_33_249
*1491 FILLER_0_33_257
*1492 FILLER_0_33_261
*1493 FILLER_0_33_273
*1494 FILLER_0_33_279
*1495 FILLER_0_33_281
*1496 FILLER_0_33_293
*1497 FILLER_0_33_297
*1498 FILLER_0_33_3
*1499 FILLER_0_33_318
*1500 FILLER_0_33_51
*1501 FILLER_0_33_55
*1502 FILLER_0_33_57
*1503 FILLER_0_33_74
*1504 FILLER_0_33_86
*1505 FILLER_0_33_98
*1506 FILLER_0_34_103
*1507 FILLER_0_34_117
*1508 FILLER_0_34_132
*1509 FILLER_0_34_141
*1510 FILLER_0_34_181
*1511 FILLER_0_34_187
*1512 FILLER_0_34_19
*1513 FILLER_0_34_224
*1514 FILLER_0_34_249
*1515 FILLER_0_34_253
*1516 FILLER_0_34_257
*1517 FILLER_0_34_27
*1518 FILLER_0_34_29
*1519 FILLER_0_34_300
*1520 FILLER_0_34_309
*1521 FILLER_0_34_317
*1522 FILLER_0_34_52
*1523 FILLER_0_34_65
*1524 FILLER_0_34_7
*1525 FILLER_0_34_74
*1526 FILLER_0_34_82
*1527 FILLER_0_35_106
*1528 FILLER_0_35_113
*1529 FILLER_0_35_125
*1530 FILLER_0_35_143
*1531 FILLER_0_35_158
*1532 FILLER_0_35_166
*1533 FILLER_0_35_172
*1534 FILLER_0_35_19
*1535 FILLER_0_35_212
*1536 FILLER_0_35_223
*1537 FILLER_0_35_225
*1538 FILLER_0_35_240
*1539 FILLER_0_35_244
*1540 FILLER_0_35_278
*1541 FILLER_0_35_291
*1542 FILLER_0_35_303
*1543 FILLER_0_35_31
*1544 FILLER_0_35_315
*1545 FILLER_0_35_319
*1546 FILLER_0_35_37
*1547 FILLER_0_35_51
*1548 FILLER_0_35_55
*1549 FILLER_0_35_64
*1550 FILLER_0_35_7
*1551 FILLER_0_35_70
*1552 FILLER_0_35_97
*1553 FILLER_0_36_100
*1554 FILLER_0_36_104