* NGSPICE file created from openlane_manchester_baby.ext - technology: sky130A

* Black-box entry subcircuit for sky130_fd_sc_hd__tapvpwrvgnd_1 abstract view
.subckt sky130_fd_sc_hd__tapvpwrvgnd_1 VGND VPWR
.ends

* Black-box entry subcircuit for sky130_fd_sc_hd__fill_1 abstract view
.subckt sky130_fd_sc_hd__fill_1 VGND VNB VPB VPWR
.ends

* Black-box entry subcircuit for sky130_ef_sc_hd__decap_12 abstract view
.subckt sky130_ef_sc_hd__decap_12 VGND VPWR VPB VNB
.ends

* Black-box entry subcircuit for sky130_fd_sc_hd__buf_4 abstract view
.subckt sky130_fd_sc_hd__buf_4 A VGND VNB VPB VPWR X
.ends

* Black-box entry subcircuit for sky130_fd_sc_hd__decap_6 abstract view
.subckt sky130_fd_sc_hd__decap_6 VGND VNB VPB VPWR
.ends

* Black-box entry subcircuit for sky130_fd_sc_hd__decap_4 abstract view
.subckt sky130_fd_sc_hd__decap_4 VGND VNB VPB VPWR
.ends

* Black-box entry subcircuit for sky130_fd_sc_hd__o31a_1 abstract view
.subckt sky130_fd_sc_hd__o31a_1 A1 A2 A3 B1 VGND VNB VPB VPWR X
.ends

* Black-box entry subcircuit for sky130_fd_sc_hd__dlxtp_1 abstract view
.subckt sky130_fd_sc_hd__dlxtp_1 D GATE VGND VNB VPB VPWR Q
.ends

* Black-box entry subcircuit for sky130_fd_sc_hd__dfrtp_1 abstract view
.subckt sky130_fd_sc_hd__dfrtp_1 CLK D RESET_B VGND VNB VPB VPWR Q
.ends

* Black-box entry subcircuit for sky130_fd_sc_hd__fill_2 abstract view
.subckt sky130_fd_sc_hd__fill_2 VGND VNB VPB VPWR
.ends

* Black-box entry subcircuit for sky130_fd_sc_hd__decap_8 abstract view
.subckt sky130_fd_sc_hd__decap_8 VGND VNB VPB VPWR
.ends

* Black-box entry subcircuit for sky130_fd_sc_hd__or2_1 abstract view
.subckt sky130_fd_sc_hd__or2_1 A B VGND VNB VPB VPWR X
.ends

* Black-box entry subcircuit for sky130_fd_sc_hd__and2_1 abstract view
.subckt sky130_fd_sc_hd__and2_1 A B VGND VNB VPB VPWR X
.ends

* Black-box entry subcircuit for sky130_fd_sc_hd__inv_2 abstract view
.subckt sky130_fd_sc_hd__inv_2 A VGND VNB VPB VPWR Y
.ends

* Black-box entry subcircuit for sky130_fd_sc_hd__clkbuf_1 abstract view
.subckt sky130_fd_sc_hd__clkbuf_1 A VGND VNB VPB VPWR X
.ends

* Black-box entry subcircuit for sky130_fd_sc_hd__and4_1 abstract view
.subckt sky130_fd_sc_hd__and4_1 A B C D VGND VNB VPB VPWR X
.ends

* Black-box entry subcircuit for sky130_fd_sc_hd__nor2_1 abstract view
.subckt sky130_fd_sc_hd__nor2_1 A B VGND VNB VPB VPWR Y
.ends

* Black-box entry subcircuit for sky130_fd_sc_hd__clkbuf_4 abstract view
.subckt sky130_fd_sc_hd__clkbuf_4 A VGND VNB VPB VPWR X
.ends

* Black-box entry subcircuit for sky130_fd_sc_hd__nand2_1 abstract view
.subckt sky130_fd_sc_hd__nand2_1 A B VGND VNB VPB VPWR Y
.ends

* Black-box entry subcircuit for sky130_fd_sc_hd__mux2_1 abstract view
.subckt sky130_fd_sc_hd__mux2_1 A0 A1 S VGND VNB VPB VPWR X
.ends

* Black-box entry subcircuit for sky130_fd_sc_hd__a2bb2o_1 abstract view
.subckt sky130_fd_sc_hd__a2bb2o_1 A1_N A2_N B1 B2 VGND VNB VPB VPWR X
.ends

* Black-box entry subcircuit for sky130_fd_sc_hd__a22o_1 abstract view
.subckt sky130_fd_sc_hd__a22o_1 A1 A2 B1 B2 VGND VNB VPB VPWR X
.ends

* Black-box entry subcircuit for sky130_fd_sc_hd__or4_4 abstract view
.subckt sky130_fd_sc_hd__or4_4 A B C D VGND VNB VPB VPWR X
.ends

* Black-box entry subcircuit for sky130_fd_sc_hd__dlygate4sd3_1 abstract view
.subckt sky130_fd_sc_hd__dlygate4sd3_1 A VGND VNB VPB VPWR X
.ends

* Black-box entry subcircuit for sky130_fd_sc_hd__a311o_1 abstract view
.subckt sky130_fd_sc_hd__a311o_1 A1 A2 A3 B1 C1 VGND VNB VPB VPWR X
.ends

* Black-box entry subcircuit for sky130_fd_sc_hd__a31o_1 abstract view
.subckt sky130_fd_sc_hd__a31o_1 A1 A2 A3 B1 VGND VNB VPB VPWR X
.ends

* Black-box entry subcircuit for sky130_fd_sc_hd__decap_3 abstract view
.subckt sky130_fd_sc_hd__decap_3 VGND VNB VPB VPWR
.ends

* Black-box entry subcircuit for sky130_fd_sc_hd__buf_2 abstract view
.subckt sky130_fd_sc_hd__buf_2 A VGND VNB VPB VPWR X
.ends

* Black-box entry subcircuit for sky130_fd_sc_hd__and2b_1 abstract view
.subckt sky130_fd_sc_hd__and2b_1 A_N B VGND VNB VPB VPWR X
.ends

* Black-box entry subcircuit for sky130_fd_sc_hd__a21bo_1 abstract view
.subckt sky130_fd_sc_hd__a21bo_1 A1 A2 B1_N VGND VNB VPB VPWR X
.ends

* Black-box entry subcircuit for sky130_fd_sc_hd__o21ai_1 abstract view
.subckt sky130_fd_sc_hd__o21ai_1 A1 A2 B1 VGND VNB VPB VPWR Y
.ends

* Black-box entry subcircuit for sky130_fd_sc_hd__or2b_1 abstract view
.subckt sky130_fd_sc_hd__or2b_1 A B_N VGND VNB VPB VPWR X
.ends

* Black-box entry subcircuit for sky130_fd_sc_hd__a32o_1 abstract view
.subckt sky130_fd_sc_hd__a32o_1 A1 A2 A3 B1 B2 VGND VNB VPB VPWR X
.ends

* Black-box entry subcircuit for sky130_fd_sc_hd__a221o_1 abstract view
.subckt sky130_fd_sc_hd__a221o_1 A1 A2 B1 B2 C1 VGND VNB VPB VPWR X
.ends

* Black-box entry subcircuit for sky130_fd_sc_hd__xnor2_2 abstract view
.subckt sky130_fd_sc_hd__xnor2_2 A B VGND VNB VPB VPWR Y
.ends

* Black-box entry subcircuit for sky130_fd_sc_hd__a21oi_1 abstract view
.subckt sky130_fd_sc_hd__a21oi_1 A1 A2 B1 VGND VNB VPB VPWR Y
.ends

* Black-box entry subcircuit for sky130_fd_sc_hd__dlxtn_2 abstract view
.subckt sky130_fd_sc_hd__dlxtn_2 D GATE_N VGND VNB VPB VPWR Q
.ends

* Black-box entry subcircuit for sky130_fd_sc_hd__xnor2_1 abstract view
.subckt sky130_fd_sc_hd__xnor2_1 A B VGND VNB VPB VPWR Y
.ends

* Black-box entry subcircuit for sky130_fd_sc_hd__o21a_1 abstract view
.subckt sky130_fd_sc_hd__o21a_1 A1 A2 B1 VGND VNB VPB VPWR X
.ends

* Black-box entry subcircuit for sky130_fd_sc_hd__or3_1 abstract view
.subckt sky130_fd_sc_hd__or3_1 A B C VGND VNB VPB VPWR X
.ends

* Black-box entry subcircuit for sky130_fd_sc_hd__xor2_2 abstract view
.subckt sky130_fd_sc_hd__xor2_2 A B VGND VNB VPB VPWR X
.ends

* Black-box entry subcircuit for sky130_fd_sc_hd__clkbuf_2 abstract view
.subckt sky130_fd_sc_hd__clkbuf_2 A VGND VNB VPB VPWR X
.ends

* Black-box entry subcircuit for sky130_fd_sc_hd__dlxtn_1 abstract view
.subckt sky130_fd_sc_hd__dlxtn_1 D GATE_N VGND VNB VPB VPWR Q
.ends

* Black-box entry subcircuit for sky130_fd_sc_hd__nor2_2 abstract view
.subckt sky130_fd_sc_hd__nor2_2 A B VGND VNB VPB VPWR Y
.ends

* Black-box entry subcircuit for sky130_fd_sc_hd__and4b_1 abstract view
.subckt sky130_fd_sc_hd__and4b_1 A_N B C D VGND VNB VPB VPWR X
.ends

* Black-box entry subcircuit for sky130_fd_sc_hd__o311ai_4 abstract view
.subckt sky130_fd_sc_hd__o311ai_4 A1 A2 A3 B1 C1 VGND VNB VPB VPWR Y
.ends

* Black-box entry subcircuit for sky130_fd_sc_hd__o22a_2 abstract view
.subckt sky130_fd_sc_hd__o22a_2 A1 A2 B1 B2 VGND VNB VPB VPWR X
.ends

* Black-box entry subcircuit for sky130_fd_sc_hd__clkbuf_16 abstract view
.subckt sky130_fd_sc_hd__clkbuf_16 A VGND VNB VPB VPWR X
.ends

* Black-box entry subcircuit for sky130_fd_sc_hd__xor2_1 abstract view
.subckt sky130_fd_sc_hd__xor2_1 A B VGND VNB VPB VPWR X
.ends

* Black-box entry subcircuit for sky130_fd_sc_hd__o21ai_4 abstract view
.subckt sky130_fd_sc_hd__o21ai_4 A1 A2 B1 VGND VNB VPB VPWR Y
.ends

* Black-box entry subcircuit for sky130_fd_sc_hd__dfxtp_1 abstract view
.subckt sky130_fd_sc_hd__dfxtp_1 CLK D VGND VNB VPB VPWR Q
.ends

* Black-box entry subcircuit for sky130_fd_sc_hd__a21o_1 abstract view
.subckt sky130_fd_sc_hd__a21o_1 A1 A2 B1 VGND VNB VPB VPWR X
.ends

* Black-box entry subcircuit for sky130_fd_sc_hd__o2bb2a_1 abstract view
.subckt sky130_fd_sc_hd__o2bb2a_1 A1_N A2_N B1 B2 VGND VNB VPB VPWR X
.ends

* Black-box entry subcircuit for sky130_fd_sc_hd__or3b_1 abstract view
.subckt sky130_fd_sc_hd__or3b_1 A B C_N VGND VNB VPB VPWR X
.ends

* Black-box entry subcircuit for sky130_fd_sc_hd__and3_1 abstract view
.subckt sky130_fd_sc_hd__and3_1 A B C VGND VNB VPB VPWR X
.ends

* Black-box entry subcircuit for sky130_fd_sc_hd__inv_4 abstract view
.subckt sky130_fd_sc_hd__inv_4 A VGND VNB VPB VPWR Y
.ends

* Black-box entry subcircuit for sky130_fd_sc_hd__o31ai_1 abstract view
.subckt sky130_fd_sc_hd__o31ai_1 A1 A2 A3 B1 VGND VNB VPB VPWR Y
.ends

* Black-box entry subcircuit for sky130_fd_sc_hd__or3_2 abstract view
.subckt sky130_fd_sc_hd__or3_2 A B C VGND VNB VPB VPWR X
.ends

* Black-box entry subcircuit for sky130_fd_sc_hd__a21oi_2 abstract view
.subckt sky130_fd_sc_hd__a21oi_2 A1 A2 B1 VGND VNB VPB VPWR Y
.ends

* Black-box entry subcircuit for sky130_fd_sc_hd__o211ai_1 abstract view
.subckt sky130_fd_sc_hd__o211ai_1 A1 A2 B1 C1 VGND VNB VPB VPWR Y
.ends

* Black-box entry subcircuit for sky130_fd_sc_hd__dfrtp_4 abstract view
.subckt sky130_fd_sc_hd__dfrtp_4 CLK D RESET_B VGND VNB VPB VPWR Q
.ends

* Black-box entry subcircuit for sky130_fd_sc_hd__a211o_1 abstract view
.subckt sky130_fd_sc_hd__a211o_1 A1 A2 B1 C1 VGND VNB VPB VPWR X
.ends

* Black-box entry subcircuit for sky130_fd_sc_hd__nand2b_2 abstract view
.subckt sky130_fd_sc_hd__nand2b_2 A_N B VGND VNB VPB VPWR Y
.ends

* Black-box entry subcircuit for sky130_fd_sc_hd__o311a_1 abstract view
.subckt sky130_fd_sc_hd__o311a_1 A1 A2 A3 B1 C1 VGND VNB VPB VPWR X
.ends

* Black-box entry subcircuit for sky130_fd_sc_hd__and3b_1 abstract view
.subckt sky130_fd_sc_hd__and3b_1 A_N B C VGND VNB VPB VPWR X
.ends

* Black-box entry subcircuit for sky130_fd_sc_hd__o221a_1 abstract view
.subckt sky130_fd_sc_hd__o221a_1 A1 A2 B1 B2 C1 VGND VNB VPB VPWR X
.ends

* Black-box entry subcircuit for sky130_fd_sc_hd__dfxtp_2 abstract view
.subckt sky130_fd_sc_hd__dfxtp_2 CLK D VGND VNB VPB VPWR Q
.ends

* Black-box entry subcircuit for sky130_fd_sc_hd__buf_1 abstract view
.subckt sky130_fd_sc_hd__buf_1 A VGND VNB VPB VPWR X
.ends

* Black-box entry subcircuit for sky130_fd_sc_hd__nand3_1 abstract view
.subckt sky130_fd_sc_hd__nand3_1 A B C VGND VNB VPB VPWR Y
.ends

* Black-box entry subcircuit for sky130_fd_sc_hd__or4b_4 abstract view
.subckt sky130_fd_sc_hd__or4b_4 A B C D_N VGND VNB VPB VPWR X
.ends

* Black-box entry subcircuit for sky130_fd_sc_hd__a21boi_1 abstract view
.subckt sky130_fd_sc_hd__a21boi_1 A1 A2 B1_N VGND VNB VPB VPWR Y
.ends

* Black-box entry subcircuit for sky130_fd_sc_hd__a41o_1 abstract view
.subckt sky130_fd_sc_hd__a41o_1 A1 A2 A3 A4 B1 VGND VNB VPB VPWR X
.ends

* Black-box entry subcircuit for sky130_fd_sc_hd__buf_6 abstract view
.subckt sky130_fd_sc_hd__buf_6 A VGND VNB VPB VPWR X
.ends

* Black-box entry subcircuit for sky130_fd_sc_hd__or4b_1 abstract view
.subckt sky130_fd_sc_hd__or4b_1 A B C D_N VGND VNB VPB VPWR X
.ends

* Black-box entry subcircuit for sky130_fd_sc_hd__nand2_2 abstract view
.subckt sky130_fd_sc_hd__nand2_2 A B VGND VNB VPB VPWR Y
.ends

* Black-box entry subcircuit for sky130_fd_sc_hd__or4_1 abstract view
.subckt sky130_fd_sc_hd__or4_1 A B C D VGND VNB VPB VPWR X
.ends

* Black-box entry subcircuit for sky130_fd_sc_hd__nor2_4 abstract view
.subckt sky130_fd_sc_hd__nor2_4 A B VGND VNB VPB VPWR Y
.ends

* Black-box entry subcircuit for sky130_fd_sc_hd__or2_4 abstract view
.subckt sky130_fd_sc_hd__or2_4 A B VGND VNB VPB VPWR X
.ends

* Black-box entry subcircuit for sky130_fd_sc_hd__dlymetal6s2s_1 abstract view
.subckt sky130_fd_sc_hd__dlymetal6s2s_1 A VGND VNB VPB VPWR X
.ends

* Black-box entry subcircuit for sky130_fd_sc_hd__or3_4 abstract view
.subckt sky130_fd_sc_hd__or3_4 A B C VGND VNB VPB VPWR X
.ends

* Black-box entry subcircuit for sky130_fd_sc_hd__and4bb_2 abstract view
.subckt sky130_fd_sc_hd__and4bb_2 A_N B_N C D VGND VNB VPB VPWR X
.ends

* Black-box entry subcircuit for sky130_fd_sc_hd__dfrtp_2 abstract view
.subckt sky130_fd_sc_hd__dfrtp_2 CLK D RESET_B VGND VNB VPB VPWR Q
.ends

* Black-box entry subcircuit for sky130_fd_sc_hd__o21ba_1 abstract view
.subckt sky130_fd_sc_hd__o21ba_1 A1 A2 B1_N VGND VNB VPB VPWR X
.ends

* Black-box entry subcircuit for sky130_fd_sc_hd__nand3b_1 abstract view
.subckt sky130_fd_sc_hd__nand3b_1 A_N B C VGND VNB VPB VPWR Y
.ends

* Black-box entry subcircuit for sky130_fd_sc_hd__and3_2 abstract view
.subckt sky130_fd_sc_hd__and3_2 A B C VGND VNB VPB VPWR X
.ends

* Black-box entry subcircuit for sky130_fd_sc_hd__dlygate4sd1_1 abstract view
.subckt sky130_fd_sc_hd__dlygate4sd1_1 A VGND VNB VPB VPWR X
.ends

* Black-box entry subcircuit for sky130_fd_sc_hd__nand2b_1 abstract view
.subckt sky130_fd_sc_hd__nand2b_1 A_N B VGND VNB VPB VPWR Y
.ends

* Black-box entry subcircuit for sky130_fd_sc_hd__a211oi_2 abstract view
.subckt sky130_fd_sc_hd__a211oi_2 A1 A2 B1 C1 VGND VNB VPB VPWR Y
.ends

.subckt openlane_manchester_baby VGND VPWR clock ram_addr_o[0] ram_addr_o[1] ram_addr_o[2]
+ ram_addr_o[3] ram_addr_o[4] ram_data_io[0] ram_data_io[10] ram_data_io[11] ram_data_io[12]
+ ram_data_io[13] ram_data_io[14] ram_data_io[15] ram_data_io[16] ram_data_io[17]
+ ram_data_io[18] ram_data_io[19] ram_data_io[1] ram_data_io[20] ram_data_io[21] ram_data_io[22]
+ ram_data_io[23] ram_data_io[24] ram_data_io[25] ram_data_io[26] ram_data_io[27]
+ ram_data_io[28] ram_data_io[29] ram_data_io[2] ram_data_io[30] ram_data_io[31] ram_data_io[3]
+ ram_data_io[4] ram_data_io[5] ram_data_io[6] ram_data_io[7] ram_data_io[8] ram_data_io[9]
+ ram_rw_en_o reset_i stop_lamp_o
XTAP_TAPCELL_ROW_37_401 VGND VPWR sky130_fd_sc_hd__tapvpwrvgnd_1
XFILLER_0_57_391 VGND VGND VPWR VPWR sky130_fd_sc_hd__fill_1
XFILLER_0_43_81 VGND VGND VPWR VPWR sky130_fd_sc_hd__fill_1
XFILLER_0_7_81 VGND VPWR VPWR VGND sky130_ef_sc_hd__decap_12
XFILLER_0_55_317 VGND VPWR VPWR VGND sky130_ef_sc_hd__decap_12
XFILLER_0_63_361 VGND VPWR VPWR VGND sky130_ef_sc_hd__decap_12
XFILLER_0_23_225 VGND VGND VPWR VPWR sky130_fd_sc_hd__fill_1
XFILLER_0_48_15 VGND VPWR VPWR VGND sky130_ef_sc_hd__decap_12
XFILLER_0_64_69 VGND VPWR VPWR VGND sky130_ef_sc_hd__decap_12
X_1270_ _0639_ VGND VGND VPWR VPWR _0642_ sky130_fd_sc_hd__buf_4
XFILLER_0_3_39 VGND VPWR VPWR VGND sky130_ef_sc_hd__decap_12
XFILLER_0_58_177 VGND VPWR VPWR VGND sky130_ef_sc_hd__decap_12
XFILLER_0_58_133 VGND VGND VPWR VPWR sky130_fd_sc_hd__decap_6
XFILLER_0_13_51 VGND VGND VPWR VPWR sky130_fd_sc_hd__decap_4
X_0985_ _0207_ _0210_ _0377_ _0378_ VGND VGND VPWR VPWR _0417_ sky130_fd_sc_hd__o31a_1
X_1468_ manchester_baby_instance.ram_data_o_2 net11 VGND VGND VPWR VPWR ram_data_io[2]
+ sky130_fd_sc_hd__dlxtp_1
X_1399_ clknet_3_6__leaf_clock _0086_ _0040_ VGND VGND VPWR VPWR manchester_baby_instance.CIRCUIT_0.IR.q\[15\]
+ sky130_fd_sc_hd__dfrtp_1
XFILLER_0_49_166 VGND VGND VPWR VPWR sky130_fd_sc_hd__fill_2
XFILLER_0_64_169 VGND VGND VPWR VPWR sky130_fd_sc_hd__decap_8
XFILLER_0_64_125 VGND VPWR VPWR VGND sky130_ef_sc_hd__decap_12
XFILLER_0_52_309 VGND VPWR VPWR VGND sky130_ef_sc_hd__decap_12
XFILLER_0_49_177 VGND VGND VPWR VPWR sky130_fd_sc_hd__fill_2
XFILLER_0_45_361 VGND VPWR VPWR VGND sky130_ef_sc_hd__decap_12
XTAP_TAPCELL_ROW_40_418 VGND VPWR sky130_fd_sc_hd__tapvpwrvgnd_1
XFILLER_0_20_228 VGND VGND VPWR VPWR sky130_fd_sc_hd__decap_8
XTAP_TAPCELL_ROW_5_173 VGND VPWR sky130_fd_sc_hd__tapvpwrvgnd_1
XFILLER_0_18_29 VGND VPWR VPWR VGND sky130_ef_sc_hd__decap_12
XFILLER_0_55_125 VGND VPWR VPWR VGND sky130_ef_sc_hd__decap_12
XFILLER_0_50_27 VGND VGND VPWR VPWR sky130_fd_sc_hd__fill_1
XFILLER_0_55_169 VGND VPWR VPWR VGND sky130_ef_sc_hd__decap_12
X_0770_ _0199_ _0202_ VGND VGND VPWR VPWR _0203_ sky130_fd_sc_hd__or2_1
XFILLER_0_59_69 VGND VPWR VPWR VGND sky130_ef_sc_hd__decap_12
X_1322_ manchester_baby_instance.BASE_0.s_countReg\[10\] _0619_ VGND VGND VPWR VPWR
+ _0659_ sky130_fd_sc_hd__and2_1
X_1253_ _0640_ VGND VGND VPWR VPWR _0005_ sky130_fd_sc_hd__inv_2
XTAP_TAPCELL_ROW_19_275 VGND VPWR sky130_fd_sc_hd__tapvpwrvgnd_1
X_1184_ _0590_ VGND VGND VPWR VPWR _0052_ sky130_fd_sc_hd__clkbuf_1
XTAP_TAPCELL_ROW_62_576 VGND VPWR sky130_fd_sc_hd__tapvpwrvgnd_1
XFILLER_0_34_309 VGND VGND VPWR VPWR sky130_fd_sc_hd__decap_6
XFILLER_0_6_233 VGND VPWR VPWR VGND sky130_ef_sc_hd__decap_12
XFILLER_0_6_277 VGND VPWR VPWR VGND sky130_ef_sc_hd__decap_12
X_0968_ manchester_baby_instance.ram_data_i_20 manchester_baby_instance.ram_data_i_21
+ _0399_ _0400_ VGND VGND VPWR VPWR _0401_ sky130_fd_sc_hd__and4_1
XFILLER_0_40_82 VGND VGND VPWR VPWR sky130_fd_sc_hd__fill_2
X_0899_ _0324_ _0331_ VGND VGND VPWR VPWR _0332_ sky130_fd_sc_hd__nor2_1
XTAP_TAPCELL_ROW_2_154 VGND VPWR sky130_fd_sc_hd__tapvpwrvgnd_1
XTAP_TAPCELL_ROW_53_510 VGND VPWR sky130_fd_sc_hd__tapvpwrvgnd_1
XFILLER_0_52_106 VGND VGND VPWR VPWR sky130_fd_sc_hd__decap_4
XFILLER_0_37_169 VGND VGND VPWR VPWR sky130_fd_sc_hd__decap_8
XFILLER_0_33_320 VGND VGND VPWR VPWR sky130_fd_sc_hd__fill_1
XFILLER_0_29_39 VGND VPWR VPWR VGND sky130_ef_sc_hd__decap_12
XFILLER_0_61_15 VGND VPWR VPWR VGND sky130_ef_sc_hd__decap_12
XFILLER_0_0_29 VGND VPWR VPWR VGND sky130_ef_sc_hd__decap_12
XFILLER_0_56_401 VGND VGND VPWR VPWR sky130_fd_sc_hd__decap_6
XFILLER_0_43_139 VGND VPWR VPWR VGND sky130_ef_sc_hd__decap_12
XFILLER_0_9_27 VGND VPWR VPWR VGND sky130_ef_sc_hd__decap_12
X_0822_ _0253_ _0254_ VGND VGND VPWR VPWR _0255_ sky130_fd_sc_hd__or2_1
XFILLER_0_16_309 VGND VGND VPWR VPWR sky130_fd_sc_hd__decap_8
X_0753_ _0192_ VGND VGND VPWR VPWR _0085_ sky130_fd_sc_hd__clkbuf_1
X_0684_ manchester_baby_instance.ram_data_i_2 VGND VGND VPWR VPWR _0132_ sky130_fd_sc_hd__clkbuf_4
XFILLER_0_3_225 VGND VPWR VPWR VGND sky130_ef_sc_hd__decap_12
XFILLER_0_10_41 VGND VPWR VPWR VGND sky130_ef_sc_hd__decap_12
XFILLER_0_10_85 VGND VPWR VPWR VGND sky130_ef_sc_hd__decap_12
XFILLER_0_24_353 VGND VGND VPWR VPWR sky130_fd_sc_hd__decap_8
X_1236_ _0634_ VGND VGND VPWR VPWR _0000_ sky130_fd_sc_hd__clkbuf_1
X_1305_ _0648_ net45 VGND VGND VPWR VPWR _0095_ sky130_fd_sc_hd__nand2_1
XFILLER_0_59_261 VGND VPWR VPWR VGND sky130_ef_sc_hd__decap_12
X_1098_ _0515_ manchester_baby_instance.ram_data_o_16 _0470_ VGND VGND VPWR VPWR _0516_
+ sky130_fd_sc_hd__mux2_1
X_1167_ _0572_ _0573_ _0575_ _0484_ VGND VGND VPWR VPWR _0576_ sky130_fd_sc_hd__a2bb2o_1
XFILLER_0_34_139 VGND VGND VPWR VPWR sky130_fd_sc_hd__fill_1
XFILLER_0_34_117 VGND VGND VPWR VPWR sky130_fd_sc_hd__fill_1
XFILLER_0_30_389 VGND VPWR VPWR VGND sky130_ef_sc_hd__decap_12
XFILLER_0_38_401 VGND VGND VPWR VPWR sky130_fd_sc_hd__decap_6
XFILLER_0_33_161 VGND VGND VPWR VPWR sky130_fd_sc_hd__decap_6
XFILLER_0_21_356 VGND VPWR VPWR VGND sky130_ef_sc_hd__decap_12
XFILLER_0_56_15 VGND VPWR VPWR VGND sky130_ef_sc_hd__decap_12
X_1021_ _0448_ manchester_baby_instance.ram_data_o_26 _0414_ VGND VGND VPWR VPWR _0449_
+ sky130_fd_sc_hd__mux2_1
XFILLER_0_56_253 VGND VPWR VPWR VGND sky130_ef_sc_hd__decap_12
X_0805_ _0132_ VGND VGND VPWR VPWR _0238_ sky130_fd_sc_hd__inv_2
XFILLER_0_21_51 VGND VGND VPWR VPWR sky130_fd_sc_hd__decap_4
X_0736_ manchester_baby_instance.CIRCUIT_0.ARITH_38.dataB\[1\] _0131_ _0180_ _0130_
+ VGND VGND VPWR VPWR _0120_ sky130_fd_sc_hd__a22o_1
XFILLER_0_12_389 VGND VPWR VPWR VGND sky130_ef_sc_hd__decap_12
X_1219_ manchester_baby_instance.BASE_0.s_countReg\[10\] manchester_baby_instance.BASE_0.s_countReg\[11\]
+ net29 _0619_ VGND VGND VPWR VPWR _0620_ sky130_fd_sc_hd__or4_4
XFILLER_0_34_3 VGND VPWR VPWR VGND sky130_ef_sc_hd__decap_12
XTAP_TAPCELL_ROW_27_329 VGND VPWR sky130_fd_sc_hd__tapvpwrvgnd_1
XFILLER_0_47_253 VGND VPWR VPWR VGND sky130_ef_sc_hd__decap_12
XTAP_TAPCELL_ROW_35_384 VGND VPWR sky130_fd_sc_hd__tapvpwrvgnd_1
XTAP_TAPCELL_ROW_10_207 VGND VPWR sky130_fd_sc_hd__tapvpwrvgnd_1
XFILLER_0_62_289 VGND VPWR VPWR VGND sky130_ef_sc_hd__decap_12
XFILLER_0_62_245 VGND VGND VPWR VPWR sky130_fd_sc_hd__decap_6
XFILLER_0_7_361 VGND VPWR VPWR VGND sky130_ef_sc_hd__decap_12
Xhold52 manchester_baby_instance.CIRCUIT_0.ARITH_38.dataB\[4\] VGND VGND VPWR VPWR
+ net68 sky130_fd_sc_hd__dlygate4sd3_1
Xhold30 _0095_ VGND VGND VPWR VPWR net46 sky130_fd_sc_hd__dlygate4sd3_1
XFILLER_0_26_29 VGND VPWR VPWR VGND sky130_ef_sc_hd__decap_12
XFILLER_0_42_17 VGND VGND VPWR VPWR sky130_fd_sc_hd__fill_2
XFILLER_0_53_223 VGND VGND VPWR VPWR sky130_fd_sc_hd__fill_1
XFILLER_0_38_264 VGND VGND VPWR VPWR sky130_fd_sc_hd__fill_1
XFILLER_0_38_253 VGND VGND VPWR VPWR sky130_fd_sc_hd__decap_6
XFILLER_0_21_197 VGND VGND VPWR VPWR sky130_fd_sc_hd__fill_1
X_1004_ _0376_ _0371_ _0374_ _0377_ _0386_ VGND VGND VPWR VPWR _0434_ sky130_fd_sc_hd__a311o_1
XTAP_TAPCELL_ROW_32_365 VGND VPWR sky130_fd_sc_hd__tapvpwrvgnd_1
XFILLER_0_32_83 VGND VGND VPWR VPWR sky130_fd_sc_hd__fill_1
XFILLER_0_29_220 VGND VGND VPWR VPWR sky130_fd_sc_hd__decap_4
XFILLER_0_44_289 VGND VGND VPWR VPWR sky130_fd_sc_hd__decap_4
XFILLER_0_44_245 VGND VGND VPWR VPWR sky130_fd_sc_hd__decap_6
X_0719_ _0151_ _0155_ _0159_ _0165_ VGND VGND VPWR VPWR _0166_ sky130_fd_sc_hd__a31o_1
XFILLER_0_12_197 VGND VGND VPWR VPWR sky130_fd_sc_hd__decap_3
XFILLER_0_35_278 VGND VGND VPWR VPWR sky130_fd_sc_hd__fill_2
XFILLER_0_35_267 VGND VGND VPWR VPWR sky130_fd_sc_hd__fill_1
XFILLER_0_35_245 VGND VGND VPWR VPWR sky130_fd_sc_hd__decap_3
Xoutput7 net15 VGND VGND VPWR VPWR ram_rw_en_o sky130_fd_sc_hd__buf_2
XFILLER_0_53_27 VGND VPWR VPWR VGND sky130_ef_sc_hd__decap_12
X_1484_ manchester_baby_instance.ram_data_o_18 net13 VGND VGND VPWR VPWR ram_data_io[18]
+ sky130_fd_sc_hd__dlxtp_1
XFILLER_0_49_337 VGND VPWR VPWR VGND sky130_ef_sc_hd__decap_12
XTAP_TAPCELL_ROW_37_402 VGND VPWR sky130_fd_sc_hd__tapvpwrvgnd_1
XFILLER_0_17_223 VGND VGND VPWR VPWR sky130_fd_sc_hd__fill_1
XFILLER_0_7_93 VGND VPWR VPWR VGND sky130_ef_sc_hd__decap_12
XFILLER_0_55_329 VGND VGND VPWR VPWR sky130_fd_sc_hd__decap_6
XTAP_TAPCELL_ROW_43_438 VGND VPWR sky130_fd_sc_hd__tapvpwrvgnd_1
XFILLER_0_63_373 VGND VPWR VPWR VGND sky130_ef_sc_hd__decap_12
XFILLER_0_2_109 VGND VPWR VPWR VGND sky130_ef_sc_hd__decap_12
XFILLER_0_48_27 VGND VGND VPWR VPWR sky130_fd_sc_hd__fill_1
XFILLER_0_31_281 VGND VGND VPWR VPWR sky130_fd_sc_hd__fill_1
XTAP_TAPCELL_ROW_8_193 VGND VPWR sky130_fd_sc_hd__tapvpwrvgnd_1
XFILLER_0_64_15 VGND VPWR VPWR VGND sky130_ef_sc_hd__decap_12
XFILLER_0_58_189 VGND VGND VPWR VPWR sky130_fd_sc_hd__decap_6
XFILLER_0_46_307 VGND VGND VPWR VPWR sky130_fd_sc_hd__fill_1
X_0984_ _0412_ VGND VGND VPWR VPWR _0416_ sky130_fd_sc_hd__clkbuf_4
X_1398_ clknet_3_6__leaf_clock _0085_ _0039_ VGND VGND VPWR VPWR manchester_baby_instance.CIRCUIT_0.IR.q\[14\]
+ sky130_fd_sc_hd__dfrtp_1
X_1467_ manchester_baby_instance.ram_data_o_1 net11 VGND VGND VPWR VPWR ram_data_io[1]
+ sky130_fd_sc_hd__dlxtp_1
XPHY_EDGE_ROW_19_Left_84 VGND VGND VPWR VPWR sky130_fd_sc_hd__decap_3
XFILLER_0_64_137 VGND VGND VPWR VPWR sky130_fd_sc_hd__decap_3
XFILLER_0_60_365 VGND VPWR VPWR VGND sky130_ef_sc_hd__decap_12
XFILLER_0_60_321 VGND VPWR VPWR VGND sky130_ef_sc_hd__decap_12
XFILLER_0_45_373 VGND VPWR VPWR VGND sky130_ef_sc_hd__decap_12
XTAP_TAPCELL_ROW_40_419 VGND VPWR sky130_fd_sc_hd__tapvpwrvgnd_1
XFILLER_0_13_281 VGND VGND VPWR VPWR sky130_fd_sc_hd__decap_8
XTAP_TAPCELL_ROW_56_530 VGND VPWR sky130_fd_sc_hd__tapvpwrvgnd_1
XFILLER_0_34_29 VGND VPWR VPWR VGND sky130_ef_sc_hd__decap_12
XTAP_TAPCELL_ROW_5_174 VGND VPWR sky130_fd_sc_hd__tapvpwrvgnd_1
XFILLER_0_55_137 VGND VPWR VPWR VGND sky130_ef_sc_hd__decap_12
XFILLER_0_63_181 VGND VPWR VPWR VGND sky130_ef_sc_hd__decap_12
XFILLER_0_59_15 VGND VPWR VPWR VGND sky130_ef_sc_hd__decap_12
X_1321_ manchester_baby_instance.BASE_0.s_countReg\[10\] _0619_ VGND VGND VPWR VPWR
+ _0658_ sky130_fd_sc_hd__nor2_1
X_1252_ _0640_ VGND VGND VPWR VPWR _0004_ sky130_fd_sc_hd__inv_2
X_1183_ _0589_ manchester_baby_instance.ram_data_o_5 _0538_ VGND VGND VPWR VPWR _0590_
+ sky130_fd_sc_hd__mux2_1
XTAP_TAPCELL_ROW_19_276 VGND VPWR sky130_fd_sc_hd__tapvpwrvgnd_1
XTAP_TAPCELL_ROW_62_577 VGND VPWR sky130_fd_sc_hd__tapvpwrvgnd_1
XFILLER_0_46_159 VGND VGND VPWR VPWR sky130_fd_sc_hd__decap_8
XFILLER_0_46_148 VGND VGND VPWR VPWR sky130_fd_sc_hd__decap_3
XFILLER_0_42_365 VGND VPWR VPWR VGND sky130_ef_sc_hd__decap_12
XFILLER_0_6_245 VGND VGND VPWR VPWR sky130_fd_sc_hd__decap_6
XFILLER_0_6_289 VGND VPWR VPWR VGND sky130_ef_sc_hd__decap_12
X_0967_ manchester_baby_instance.ram_data_i_16 manchester_baby_instance.ram_data_i_17
+ manchester_baby_instance.ram_data_i_18 manchester_baby_instance.ram_data_i_19 VGND
+ VGND VPWR VPWR _0400_ sky130_fd_sc_hd__and4_1
XFILLER_0_64_3 VGND VPWR VPWR VGND sky130_ef_sc_hd__decap_12
XPHY_EDGE_ROW_12_Right_12 VGND VGND VPWR VPWR sky130_fd_sc_hd__decap_3
X_0898_ manchester_baby_instance.ram_data_i_16 manchester_baby_instance.ram_data_o_16
+ VGND VGND VPWR VPWR _0331_ sky130_fd_sc_hd__and2b_1
XFILLER_0_4_83 VGND VGND VPWR VPWR sky130_fd_sc_hd__fill_1
XTAP_TAPCELL_ROW_2_155 VGND VPWR sky130_fd_sc_hd__tapvpwrvgnd_1
XPHY_EDGE_ROW_21_Right_21 VGND VGND VPWR VPWR sky130_fd_sc_hd__decap_3
XTAP_TAPCELL_ROW_53_511 VGND VPWR sky130_fd_sc_hd__tapvpwrvgnd_1
XPHY_EDGE_ROW_4_Left_69 VGND VGND VPWR VPWR sky130_fd_sc_hd__decap_3
XFILLER_0_60_195 VGND VGND VPWR VPWR sky130_fd_sc_hd__fill_1
XFILLER_0_52_129 VGND VGND VPWR VPWR sky130_fd_sc_hd__decap_8
XFILLER_0_52_118 VGND VGND VPWR VPWR sky130_fd_sc_hd__decap_3
XFILLER_0_45_181 VGND VGND VPWR VPWR sky130_fd_sc_hd__fill_1
XPHY_EDGE_ROW_30_Right_30 VGND VGND VPWR VPWR sky130_fd_sc_hd__decap_3
XFILLER_0_61_27 VGND VPWR VPWR VGND sky130_ef_sc_hd__decap_12
X_0752_ manchester_baby_instance.CIRCUIT_0.IR.q\[14\] manchester_baby_instance.ram_data_i_14
+ _0190_ VGND VGND VPWR VPWR _0192_ sky130_fd_sc_hd__mux2_1
XFILLER_0_9_39 VGND VPWR VPWR VGND sky130_ef_sc_hd__decap_12
X_0821_ manchester_baby_instance.ram_data_o_8 manchester_baby_instance.ram_data_i_8
+ VGND VGND VPWR VPWR _0254_ sky130_fd_sc_hd__and2b_1
X_0683_ _0124_ _0127_ _0130_ VGND VGND VPWR VPWR _0131_ sky130_fd_sc_hd__a21bo_1
XFILLER_0_3_237 VGND VPWR VPWR VGND sky130_ef_sc_hd__decap_12
XFILLER_0_10_53 VGND VPWR VPWR VGND sky130_ef_sc_hd__decap_12
XFILLER_0_10_97 VGND VPWR VPWR VGND sky130_ef_sc_hd__decap_12
XFILLER_0_24_365 VGND VPWR VPWR VGND sky130_ef_sc_hd__decap_12
X_1235_ net18 net19 VGND VGND VPWR VPWR _0634_ sky130_fd_sc_hd__and2b_1
X_1304_ net20 manchester_baby_instance.BASE_0.s_countReg\[1\] net44 VGND VGND VPWR
+ VPWR _0649_ sky130_fd_sc_hd__o21ai_1
X_1166_ _0395_ _0574_ VGND VGND VPWR VPWR _0575_ sky130_fd_sc_hd__or2b_1
XFILLER_0_19_51 VGND VGND VPWR VPWR sky130_fd_sc_hd__decap_4
XFILLER_0_59_273 VGND VGND VPWR VPWR sky130_fd_sc_hd__decap_6
X_1097_ _0484_ _0513_ _0514_ _0424_ VGND VGND VPWR VPWR _0515_ sky130_fd_sc_hd__a22o_1
XFILLER_0_19_159 VGND VGND VPWR VPWR sky130_fd_sc_hd__decap_8
XFILLER_0_53_405 VGND VGND VPWR VPWR sky130_fd_sc_hd__fill_2
XFILLER_0_25_107 VGND VGND VPWR VPWR sky130_fd_sc_hd__fill_1
XFILLER_0_21_368 VGND VPWR VPWR VGND sky130_ef_sc_hd__decap_12
XFILLER_0_56_27 VGND VGND VPWR VPWR sky130_fd_sc_hd__fill_1
X_1020_ _0416_ _0439_ _0446_ _0447_ _0421_ VGND VGND VPWR VPWR _0448_ sky130_fd_sc_hd__a32o_1
XFILLER_0_56_265 VGND VPWR VPWR VGND sky130_ef_sc_hd__decap_12
XFILLER_0_56_221 VGND VPWR VPWR VGND sky130_ef_sc_hd__decap_12
XFILLER_0_8_307 VGND VGND VPWR VPWR sky130_fd_sc_hd__fill_1
X_0735_ _0134_ _0158_ _0175_ _0129_ _0179_ VGND VGND VPWR VPWR _0180_ sky130_fd_sc_hd__a221o_1
X_0804_ _0236_ _0233_ VGND VGND VPWR VPWR _0237_ sky130_fd_sc_hd__xnor2_2
XFILLER_0_24_151 VGND VPWR VPWR VGND sky130_ef_sc_hd__decap_12
XFILLER_0_24_195 VGND VGND VPWR VPWR sky130_fd_sc_hd__fill_1
XFILLER_0_46_71 VGND VGND VPWR VPWR sky130_fd_sc_hd__fill_1
X_1218_ manchester_baby_instance.BASE_0.s_countReg\[7\] manchester_baby_instance.BASE_0.s_countReg\[8\]
+ net49 _0618_ VGND VGND VPWR VPWR _0619_ sky130_fd_sc_hd__or4_4
XFILLER_0_27_3 VGND VPWR VPWR VGND sky130_ef_sc_hd__decap_12
XFILLER_0_1_51 VGND VGND VPWR VPWR sky130_fd_sc_hd__decap_4
X_1149_ _0544_ _0262_ _0261_ VGND VGND VPWR VPWR _0560_ sky130_fd_sc_hd__a21bo_1
XFILLER_0_47_265 VGND VPWR VPWR VGND sky130_ef_sc_hd__decap_12
XFILLER_0_47_210 VGND VGND VPWR VPWR sky130_fd_sc_hd__fill_1
XFILLER_0_35_405 VGND VGND VPWR VPWR sky130_fd_sc_hd__fill_2
XTAP_TAPCELL_ROW_35_385 VGND VPWR sky130_fd_sc_hd__tapvpwrvgnd_1
XFILLER_0_7_373 VGND VPWR VPWR VGND sky130_ef_sc_hd__decap_12
XTAP_TAPCELL_ROW_10_208 VGND VPWR sky130_fd_sc_hd__tapvpwrvgnd_1
Xhold20 manchester_baby_instance.BASE_0.s_countReg\[17\] VGND VGND VPWR VPWR net36
+ sky130_fd_sc_hd__dlygate4sd3_1
Xhold42 _0107_ VGND VGND VPWR VPWR net58 sky130_fd_sc_hd__dlygate4sd3_1
Xhold53 manchester_baby_instance.ram_data_o_0 VGND VGND VPWR VPWR net69 sky130_fd_sc_hd__dlygate4sd3_1
XFILLER_0_53_279 VGND VGND VPWR VPWR sky130_fd_sc_hd__fill_1
XPHY_EDGE_ROW_7_Left_72 VGND VGND VPWR VPWR sky130_fd_sc_hd__decap_3
XFILLER_0_6_29 VGND VPWR VPWR VGND sky130_ef_sc_hd__decap_12
X_1003_ _0406_ _0432_ _0421_ VGND VGND VPWR VPWR _0433_ sky130_fd_sc_hd__o21ai_1
XFILLER_0_16_41 VGND VPWR VPWR VGND sky130_ef_sc_hd__decap_12
XFILLER_0_16_85 VGND VPWR VPWR VGND sky130_ef_sc_hd__decap_12
XTAP_TAPCELL_ROW_32_366 VGND VPWR sky130_fd_sc_hd__tapvpwrvgnd_1
XFILLER_0_29_265 VGND VGND VPWR VPWR sky130_fd_sc_hd__fill_1
XFILLER_0_17_405 VGND VGND VPWR VPWR sky130_fd_sc_hd__fill_2
X_0718_ manchester_baby_instance.ram_data_i_3 _0158_ _0164_ _0148_ VGND VGND VPWR
+ VPWR _0165_ sky130_fd_sc_hd__a22o_1
XFILLER_0_4_365 VGND VPWR VPWR VGND sky130_ef_sc_hd__decap_12
XFILLER_0_4_321 VGND VPWR VPWR VGND sky130_ef_sc_hd__decap_12
XPHY_EDGE_ROW_6_Right_6 VGND VGND VPWR VPWR sky130_fd_sc_hd__decap_3
XFILLER_0_57_81 VGND VPWR VPWR VGND sky130_ef_sc_hd__decap_12
XTAP_TAPCELL_ROW_23_300 VGND VPWR sky130_fd_sc_hd__tapvpwrvgnd_1
XFILLER_0_7_181 VGND VPWR VPWR VGND sky130_ef_sc_hd__decap_12
Xoutput8 net8 VGND VGND VPWR VPWR stop_lamp_o sky130_fd_sc_hd__clkbuf_4
XPHY_EDGE_ROW_33_Left_98 VGND VGND VPWR VPWR sky130_fd_sc_hd__decap_3
XFILLER_0_53_39 VGND VPWR VPWR VGND sky130_ef_sc_hd__decap_12
XPHY_EDGE_ROW_59_Right_59 VGND VGND VPWR VPWR sky130_fd_sc_hd__decap_3
XFILLER_0_26_246 VGND VGND VPWR VPWR sky130_fd_sc_hd__decap_6
XFILLER_0_26_257 VGND VPWR VPWR VGND sky130_ef_sc_hd__decap_12
XFILLER_0_1_335 VGND VGND VPWR VPWR sky130_fd_sc_hd__fill_1
XFILLER_0_27_51 VGND VGND VPWR VPWR sky130_fd_sc_hd__decap_4
X_1483_ manchester_baby_instance.ram_data_o_17 net13 VGND VGND VPWR VPWR ram_data_io[17]
+ sky130_fd_sc_hd__dlxtp_1
XFILLER_0_49_349 VGND VPWR VPWR VGND sky130_ef_sc_hd__decap_12
XFILLER_0_49_305 VGND VPWR VPWR VGND sky130_ef_sc_hd__decap_12
XFILLER_0_57_393 VGND VPWR VPWR VGND sky130_ef_sc_hd__decap_12
XFILLER_0_4_195 VGND VGND VPWR VPWR sky130_fd_sc_hd__fill_1
XTAP_TAPCELL_ROW_43_439 VGND VPWR sky130_fd_sc_hd__tapvpwrvgnd_1
XFILLER_0_63_385 VGND VGND VPWR VPWR sky130_fd_sc_hd__decap_6