* NGSPICE file created from manchester_baby.ext - technology: sky130A

* Black-box entry subcircuit for sky130_ef_sc_hd__decap_12 abstract view
.subckt sky130_ef_sc_hd__decap_12 VGND VPWR VPB VNB
.ends

* Black-box entry subcircuit for sky130_fd_sc_hd__tapvpwrvgnd_1 abstract view
.subckt sky130_fd_sc_hd__tapvpwrvgnd_1 VGND VPWR
.ends

* Black-box entry subcircuit for sky130_fd_sc_hd__decap_3 abstract view
.subckt sky130_fd_sc_hd__decap_3 VGND VNB VPB VPWR
.ends

* Black-box entry subcircuit for sky130_fd_sc_hd__a22o_1 abstract view
.subckt sky130_fd_sc_hd__a22o_1 A1 A2 B1 B2 VGND VNB VPB VPWR X
.ends

* Black-box entry subcircuit for sky130_fd_sc_hd__fill_2 abstract view
.subckt sky130_fd_sc_hd__fill_2 VGND VNB VPB VPWR
.ends

* Black-box entry subcircuit for sky130_fd_sc_hd__o22a_1 abstract view
.subckt sky130_fd_sc_hd__o22a_1 A1 A2 B1 B2 VGND VNB VPB VPWR X
.ends

* Black-box entry subcircuit for sky130_fd_sc_hd__xor2_1 abstract view
.subckt sky130_fd_sc_hd__xor2_1 A B VGND VNB VPB VPWR X
.ends

* Black-box entry subcircuit for sky130_fd_sc_hd__decap_6 abstract view
.subckt sky130_fd_sc_hd__decap_6 VGND VNB VPB VPWR
.ends

* Black-box entry subcircuit for sky130_fd_sc_hd__or2b_1 abstract view
.subckt sky130_fd_sc_hd__or2b_1 A B_N VGND VNB VPB VPWR X
.ends

* Black-box entry subcircuit for sky130_fd_sc_hd__decap_8 abstract view
.subckt sky130_fd_sc_hd__decap_8 VGND VNB VPB VPWR
.ends

* Black-box entry subcircuit for sky130_fd_sc_hd__or3_1 abstract view
.subckt sky130_fd_sc_hd__or3_1 A B C VGND VNB VPB VPWR X
.ends

* Black-box entry subcircuit for sky130_fd_sc_hd__or2_1 abstract view
.subckt sky130_fd_sc_hd__or2_1 A B VGND VNB VPB VPWR X
.ends

* Black-box entry subcircuit for sky130_fd_sc_hd__and2b_1 abstract view
.subckt sky130_fd_sc_hd__and2b_1 A_N B VGND VNB VPB VPWR X
.ends

* Black-box entry subcircuit for sky130_fd_sc_hd__dfrtp_4 abstract view
.subckt sky130_fd_sc_hd__dfrtp_4 CLK D RESET_B VGND VNB VPB VPWR Q
.ends

* Black-box entry subcircuit for sky130_fd_sc_hd__fill_1 abstract view
.subckt sky130_fd_sc_hd__fill_1 VGND VNB VPB VPWR
.ends

* Black-box entry subcircuit for sky130_fd_sc_hd__a31o_1 abstract view
.subckt sky130_fd_sc_hd__a31o_1 A1 A2 A3 B1 VGND VNB VPB VPWR X
.ends

* Black-box entry subcircuit for sky130_fd_sc_hd__decap_4 abstract view
.subckt sky130_fd_sc_hd__decap_4 VGND VNB VPB VPWR
.ends

* Black-box entry subcircuit for sky130_fd_sc_hd__a21oi_1 abstract view
.subckt sky130_fd_sc_hd__a21oi_1 A1 A2 B1 VGND VNB VPB VPWR Y
.ends

* Black-box entry subcircuit for sky130_fd_sc_hd__dlygate4sd3_1 abstract view
.subckt sky130_fd_sc_hd__dlygate4sd3_1 A VGND VNB VPB VPWR X
.ends

* Black-box entry subcircuit for sky130_fd_sc_hd__clkbuf_4 abstract view
.subckt sky130_fd_sc_hd__clkbuf_4 A VGND VNB VPB VPWR X
.ends

* Black-box entry subcircuit for sky130_fd_sc_hd__buf_2 abstract view
.subckt sky130_fd_sc_hd__buf_2 A VGND VNB VPB VPWR X
.ends

* Black-box entry subcircuit for sky130_fd_sc_hd__a211o_1 abstract view
.subckt sky130_fd_sc_hd__a211o_1 A1 A2 B1 C1 VGND VNB VPB VPWR X
.ends

* Black-box entry subcircuit for sky130_fd_sc_hd__a21o_1 abstract view
.subckt sky130_fd_sc_hd__a21o_1 A1 A2 B1 VGND VNB VPB VPWR X
.ends

* Black-box entry subcircuit for sky130_fd_sc_hd__and3_1 abstract view
.subckt sky130_fd_sc_hd__and3_1 A B C VGND VNB VPB VPWR X
.ends

* Black-box entry subcircuit for sky130_fd_sc_hd__clkbuf_1 abstract view
.subckt sky130_fd_sc_hd__clkbuf_1 A VGND VNB VPB VPWR X
.ends

* Black-box entry subcircuit for sky130_fd_sc_hd__o221a_1 abstract view
.subckt sky130_fd_sc_hd__o221a_1 A1 A2 B1 B2 C1 VGND VNB VPB VPWR X
.ends

* Black-box entry subcircuit for sky130_fd_sc_hd__dfrtp_1 abstract view
.subckt sky130_fd_sc_hd__dfrtp_1 CLK D RESET_B VGND VNB VPB VPWR Q
.ends

* Black-box entry subcircuit for sky130_fd_sc_hd__o311ai_1 abstract view
.subckt sky130_fd_sc_hd__o311ai_1 A1 A2 A3 B1 C1 VGND VNB VPB VPWR Y
.ends

* Black-box entry subcircuit for sky130_fd_sc_hd__o31ai_2 abstract view
.subckt sky130_fd_sc_hd__o31ai_2 A1 A2 A3 B1 VGND VNB VPB VPWR Y
.ends

* Black-box entry subcircuit for sky130_fd_sc_hd__nand2_1 abstract view
.subckt sky130_fd_sc_hd__nand2_1 A B VGND VNB VPB VPWR Y
.ends

* Black-box entry subcircuit for sky130_fd_sc_hd__dfxtp_1 abstract view
.subckt sky130_fd_sc_hd__dfxtp_1 CLK D VGND VNB VPB VPWR Q
.ends

* Black-box entry subcircuit for sky130_fd_sc_hd__mux2_1 abstract view
.subckt sky130_fd_sc_hd__mux2_1 A0 A1 S VGND VNB VPB VPWR X
.ends

* Black-box entry subcircuit for sky130_fd_sc_hd__dfxtp_2 abstract view
.subckt sky130_fd_sc_hd__dfxtp_2 CLK D VGND VNB VPB VPWR Q
.ends

* Black-box entry subcircuit for sky130_fd_sc_hd__inv_2 abstract view
.subckt sky130_fd_sc_hd__inv_2 A VGND VNB VPB VPWR Y
.ends

* Black-box entry subcircuit for sky130_fd_sc_hd__a221o_1 abstract view
.subckt sky130_fd_sc_hd__a221o_1 A1 A2 B1 B2 C1 VGND VNB VPB VPWR X
.ends

* Black-box entry subcircuit for sky130_fd_sc_hd__nor2_1 abstract view
.subckt sky130_fd_sc_hd__nor2_1 A B VGND VNB VPB VPWR Y
.ends

* Black-box entry subcircuit for sky130_fd_sc_hd__o211a_1 abstract view
.subckt sky130_fd_sc_hd__o211a_1 A1 A2 B1 C1 VGND VNB VPB VPWR X
.ends

* Black-box entry subcircuit for sky130_fd_sc_hd__a21boi_1 abstract view
.subckt sky130_fd_sc_hd__a21boi_1 A1 A2 B1_N VGND VNB VPB VPWR Y
.ends

* Black-box entry subcircuit for sky130_fd_sc_hd__o21ai_1 abstract view
.subckt sky130_fd_sc_hd__o21ai_1 A1 A2 B1 VGND VNB VPB VPWR Y
.ends

* Black-box entry subcircuit for sky130_fd_sc_hd__o21a_1 abstract view
.subckt sky130_fd_sc_hd__o21a_1 A1 A2 B1 VGND VNB VPB VPWR X
.ends

* Black-box entry subcircuit for sky130_fd_sc_hd__or2_2 abstract view
.subckt sky130_fd_sc_hd__or2_2 A B VGND VNB VPB VPWR X
.ends

* Black-box entry subcircuit for sky130_fd_sc_hd__and3b_1 abstract view
.subckt sky130_fd_sc_hd__and3b_1 A_N B C VGND VNB VPB VPWR X
.ends

* Black-box entry subcircuit for sky130_fd_sc_hd__or4_4 abstract view
.subckt sky130_fd_sc_hd__or4_4 A B C D VGND VNB VPB VPWR X
.ends

* Black-box entry subcircuit for sky130_fd_sc_hd__buf_4 abstract view
.subckt sky130_fd_sc_hd__buf_4 A VGND VNB VPB VPWR X
.ends

* Black-box entry subcircuit for sky130_fd_sc_hd__clkbuf_16 abstract view
.subckt sky130_fd_sc_hd__clkbuf_16 A VGND VNB VPB VPWR X
.ends

* Black-box entry subcircuit for sky130_fd_sc_hd__and4b_1 abstract view
.subckt sky130_fd_sc_hd__and4b_1 A_N B C D VGND VNB VPB VPWR X
.ends

* Black-box entry subcircuit for sky130_fd_sc_hd__o211ai_1 abstract view
.subckt sky130_fd_sc_hd__o211ai_1 A1 A2 B1 C1 VGND VNB VPB VPWR Y
.ends

* Black-box entry subcircuit for sky130_fd_sc_hd__dfrtp_2 abstract view
.subckt sky130_fd_sc_hd__dfrtp_2 CLK D RESET_B VGND VNB VPB VPWR Q
.ends

* Black-box entry subcircuit for sky130_fd_sc_hd__xnor2_1 abstract view
.subckt sky130_fd_sc_hd__xnor2_1 A B VGND VNB VPB VPWR Y
.ends

* Black-box entry subcircuit for sky130_fd_sc_hd__and2_1 abstract view
.subckt sky130_fd_sc_hd__and2_1 A B VGND VNB VPB VPWR X
.ends

* Black-box entry subcircuit for sky130_fd_sc_hd__or3b_1 abstract view
.subckt sky130_fd_sc_hd__or3b_1 A B C_N VGND VNB VPB VPWR X
.ends

* Black-box entry subcircuit for sky130_fd_sc_hd__nor3_1 abstract view
.subckt sky130_fd_sc_hd__nor3_1 A B C VGND VNB VPB VPWR Y
.ends

* Black-box entry subcircuit for sky130_fd_sc_hd__or4_1 abstract view
.subckt sky130_fd_sc_hd__or4_1 A B C D VGND VNB VPB VPWR X
.ends

* Black-box entry subcircuit for sky130_fd_sc_hd__a32o_1 abstract view
.subckt sky130_fd_sc_hd__a32o_1 A1 A2 A3 B1 B2 VGND VNB VPB VPWR X
.ends

* Black-box entry subcircuit for sky130_fd_sc_hd__a311o_1 abstract view
.subckt sky130_fd_sc_hd__a311o_1 A1 A2 A3 B1 C1 VGND VNB VPB VPWR X
.ends

* Black-box entry subcircuit for sky130_fd_sc_hd__or4b_1 abstract view
.subckt sky130_fd_sc_hd__or4b_1 A B C D_N VGND VNB VPB VPWR X
.ends

* Black-box entry subcircuit for sky130_fd_sc_hd__buf_1 abstract view
.subckt sky130_fd_sc_hd__buf_1 A VGND VNB VPB VPWR X
.ends

* Black-box entry subcircuit for sky130_fd_sc_hd__clkbuf_2 abstract view
.subckt sky130_fd_sc_hd__clkbuf_2 A VGND VNB VPB VPWR X
.ends

* Black-box entry subcircuit for sky130_fd_sc_hd__nand3_1 abstract view
.subckt sky130_fd_sc_hd__nand3_1 A B C VGND VNB VPB VPWR Y
.ends

* Black-box entry subcircuit for sky130_fd_sc_hd__a211oi_1 abstract view
.subckt sky130_fd_sc_hd__a211oi_1 A1 A2 B1 C1 VGND VNB VPB VPWR Y
.ends

* Black-box entry subcircuit for sky130_fd_sc_hd__a2111o_1 abstract view
.subckt sky130_fd_sc_hd__a2111o_1 A1 A2 B1 C1 D1 VGND VNB VPB VPWR X
.ends

* Black-box entry subcircuit for sky130_fd_sc_hd__o31ai_1 abstract view
.subckt sky130_fd_sc_hd__o31ai_1 A1 A2 A3 B1 VGND VNB VPB VPWR Y
.ends

* Black-box entry subcircuit for sky130_fd_sc_hd__a31oi_1 abstract view
.subckt sky130_fd_sc_hd__a31oi_1 A1 A2 A3 B1 VGND VNB VPB VPWR Y
.ends

* Black-box entry subcircuit for sky130_fd_sc_hd__o21ai_4 abstract view
.subckt sky130_fd_sc_hd__o21ai_4 A1 A2 B1 VGND VNB VPB VPWR Y
.ends

* Black-box entry subcircuit for sky130_fd_sc_hd__dlymetal6s2s_1 abstract view
.subckt sky130_fd_sc_hd__dlymetal6s2s_1 A VGND VNB VPB VPWR X
.ends

* Black-box entry subcircuit for sky130_fd_sc_hd__a21bo_1 abstract view
.subckt sky130_fd_sc_hd__a21bo_1 A1 A2 B1_N VGND VNB VPB VPWR X
.ends

* Black-box entry subcircuit for sky130_fd_sc_hd__buf_6 abstract view
.subckt sky130_fd_sc_hd__buf_6 A VGND VNB VPB VPWR X
.ends

* Black-box entry subcircuit for sky130_fd_sc_hd__xnor2_2 abstract view
.subckt sky130_fd_sc_hd__xnor2_2 A B VGND VNB VPB VPWR Y
.ends

* Black-box entry subcircuit for sky130_fd_sc_hd__o41a_1 abstract view
.subckt sky130_fd_sc_hd__o41a_1 A1 A2 A3 A4 B1 VGND VNB VPB VPWR X
.ends

* Black-box entry subcircuit for sky130_fd_sc_hd__a311oi_2 abstract view
.subckt sky130_fd_sc_hd__a311oi_2 A1 A2 A3 B1 C1 VGND VNB VPB VPWR Y
.ends

* Black-box entry subcircuit for sky130_fd_sc_hd__a41oi_1 abstract view
.subckt sky130_fd_sc_hd__a41oi_1 A1 A2 A3 A4 B1 VGND VNB VPB VPWR Y
.ends

* Black-box entry subcircuit for sky130_fd_sc_hd__or3_4 abstract view
.subckt sky130_fd_sc_hd__or3_4 A B C VGND VNB VPB VPWR X
.ends

* Black-box entry subcircuit for sky130_fd_sc_hd__o21a_2 abstract view
.subckt sky130_fd_sc_hd__o21a_2 A1 A2 B1 VGND VNB VPB VPWR X
.ends

* Black-box entry subcircuit for sky130_fd_sc_hd__buf_8 abstract view
.subckt sky130_fd_sc_hd__buf_8 A VGND VNB VPB VPWR X
.ends

* Black-box entry subcircuit for sky130_fd_sc_hd__and4bb_2 abstract view
.subckt sky130_fd_sc_hd__and4bb_2 A_N B_N C D VGND VNB VPB VPWR X
.ends

* Black-box entry subcircuit for sky130_fd_sc_hd__nor3_2 abstract view
.subckt sky130_fd_sc_hd__nor3_2 A B C VGND VNB VPB VPWR Y
.ends

* Black-box entry subcircuit for sky130_fd_sc_hd__o21ba_1 abstract view
.subckt sky130_fd_sc_hd__o21ba_1 A1 A2 B1_N VGND VNB VPB VPWR X
.ends

* Black-box entry subcircuit for sky130_fd_sc_hd__and4_1 abstract view
.subckt sky130_fd_sc_hd__and4_1 A B C D VGND VNB VPB VPWR X
.ends

* Black-box entry subcircuit for sky130_fd_sc_hd__dlygate4sd1_1 abstract view
.subckt sky130_fd_sc_hd__dlygate4sd1_1 A VGND VNB VPB VPWR X
.ends

.subckt manchester_baby VGND VPWR clock clock_o ram_addr_o[0] ram_addr_o[1] ram_addr_o[2]
+ ram_addr_o[3] ram_addr_o[4] ram_data_i[0] ram_data_i[10] ram_data_i[11] ram_data_i[12]
+ ram_data_i[13] ram_data_i[14] ram_data_i[15] ram_data_i[16] ram_data_i[17] ram_data_i[18]
+ ram_data_i[19] ram_data_i[1] ram_data_i[20] ram_data_i[21] ram_data_i[22] ram_data_i[23]
+ ram_data_i[24] ram_data_i[25] ram_data_i[26] ram_data_i[27] ram_data_i[28] ram_data_i[29]
+ ram_data_i[2] ram_data_i[30] ram_data_i[31] ram_data_i[3] ram_data_i[4] ram_data_i[5]
+ ram_data_i[6] ram_data_i[7] ram_data_i[8] ram_data_i[9] ram_data_o[0] ram_data_o[10]
+ ram_data_o[11] ram_data_o[12] ram_data_o[13] ram_data_o[14] ram_data_o[15] ram_data_o[16]
+ ram_data_o[17] ram_data_o[18] ram_data_o[19] ram_data_o[1] ram_data_o[20] ram_data_o[21]
+ ram_data_o[22] ram_data_o[23] ram_data_o[24] ram_data_o[25] ram_data_o[26] ram_data_o[27]
+ ram_data_o[28] ram_data_o[29] ram_data_o[2] ram_data_o[30] ram_data_o[31] ram_data_o[3]
+ ram_data_o[4] ram_data_o[5] ram_data_o[6] ram_data_o[7] ram_data_o[8] ram_data_o[9]
+ ram_rw_en_o reset_i stop_lamp_o
XFILLER_0_43_81 VGND VPWR VPWR VGND sky130_ef_sc_hd__decap_12
XFILLER_0_17_211 VGND VPWR VPWR VGND sky130_ef_sc_hd__decap_12
XFILLER_0_7_81 VGND VPWR VPWR VGND sky130_ef_sc_hd__decap_12
XTAP_TAPCELL_ROW_9_159 VGND VPWR sky130_fd_sc_hd__tapvpwrvgnd_1
XFILLER_0_48_15 VGND VPWR VPWR VGND sky130_ef_sc_hd__decap_12
XFILLER_0_3_39 VGND VPWR VPWR VGND sky130_ef_sc_hd__decap_12
XFILLER_0_46_317 VGND VGND VPWR VPWR sky130_fd_sc_hd__decap_3
XFILLER_0_13_62 VGND VGND VPWR VPWR sky130_fd_sc_hd__decap_3
X_0985_ manchester_baby_instance.CIRCUIT_0.ARITH_38.dataB\[3\] _0494_ _0500_ _0492_
+ VGND VGND VPWR VPWR _0053_ sky130_fd_sc_hd__a22o_1
XTAP_TAPCELL_ROW_14_183 VGND VPWR sky130_fd_sc_hd__tapvpwrvgnd_1
XFILLER_0_14_236 VGND VGND VPWR VPWR sky130_fd_sc_hd__decap_3
XFILLER_0_14_269 VGND VPWR VPWR VGND sky130_ef_sc_hd__decap_12
XFILLER_0_20_239 VGND VGND VPWR VPWR sky130_fd_sc_hd__fill_2
XFILLER_0_18_29 VGND VPWR VPWR VGND sky130_ef_sc_hd__decap_12
XFILLER_0_28_317 VGND VGND VPWR VPWR sky130_fd_sc_hd__decap_3
XTAP_TAPCELL_ROW_28_264 VGND VPWR sky130_fd_sc_hd__tapvpwrvgnd_1
X_0770_ net87 _0267_ _0309_ _0312_ VGND VGND VPWR VPWR _0080_ sky130_fd_sc_hd__o22a_1
X_0968_ manchester_baby_instance.CIRCUIT_0.IR.q\[15\] manchester_baby_instance.CIRCUIT_0.IR.q\[14\]
+ VGND VGND VPWR VPWR _0485_ sky130_fd_sc_hd__xor2_1
XFILLER_0_34_309 VGND VGND VPWR VPWR sky130_fd_sc_hd__decap_6
XFILLER_0_6_277 VGND VPWR VPWR VGND sky130_ef_sc_hd__decap_12
XFILLER_0_6_233 VGND VPWR VPWR VGND sky130_ef_sc_hd__decap_12
X_0899_ _0158_ _0157_ VGND VGND VPWR VPWR _0424_ sky130_fd_sc_hd__or2b_1
XTAP_TAPCELL_ROW_2_121 VGND VPWR sky130_fd_sc_hd__tapvpwrvgnd_1
XTAP_TAPCELL_ROW_25_245 VGND VPWR sky130_fd_sc_hd__tapvpwrvgnd_1
XFILLER_0_37_169 VGND VPWR VPWR VGND sky130_ef_sc_hd__decap_12
XFILLER_0_20_19 VGND VGND VPWR VPWR sky130_fd_sc_hd__decap_8
XFILLER_0_45_27 VGND VPWR VPWR VGND sky130_ef_sc_hd__decap_12
XFILLER_0_0_29 VGND VPWR VPWR VGND sky130_ef_sc_hd__decap_12
XFILLER_0_16_309 VGND VGND VPWR VPWR sky130_fd_sc_hd__decap_8
X_0822_ net8 _0127_ _0128_ VGND VGND VPWR VPWR _0357_ sky130_fd_sc_hd__or3_1
X_0753_ net19 _0133_ VGND VGND VPWR VPWR _0298_ sky130_fd_sc_hd__or2_1
XFILLER_0_3_225 VGND VPWR VPWR VGND sky130_ef_sc_hd__decap_12
XFILLER_0_10_85 VGND VPWR VPWR VGND sky130_ef_sc_hd__decap_12
X_0684_ _0201_ _0232_ VGND VGND VPWR VPWR _0233_ sky130_fd_sc_hd__and2b_1
X_1098_ clknet_2_3__leaf_clock _0051_ _0002_ VGND VGND VPWR VPWR manchester_baby_instance.CIRCUIT_0.ARITH_38.dataB\[1\]
+ sky130_fd_sc_hd__dfrtp_4
XFILLER_0_35_60 VGND VGND VPWR VPWR sky130_fd_sc_hd__fill_1
XFILLER_0_42_150 VGND VGND VPWR VPWR sky130_fd_sc_hd__decap_8
XFILLER_0_34_106 VGND VPWR VPWR VGND sky130_ef_sc_hd__decap_12
XTAP_TAPCELL_ROW_30_270 VGND VPWR sky130_fd_sc_hd__tapvpwrvgnd_1
XFILLER_0_19_169 VGND VGND VPWR VPWR sky130_fd_sc_hd__fill_2
XTAP_TAPCELL_ROW_22_226 VGND VPWR sky130_fd_sc_hd__tapvpwrvgnd_1
XFILLER_0_27_180 VGND VGND VPWR VPWR sky130_fd_sc_hd__decap_6
XFILLER_0_42_194 VGND VGND VPWR VPWR sky130_fd_sc_hd__fill_2
XPHY_EDGE_ROW_8_Left_58 VGND VGND VPWR VPWR sky130_fd_sc_hd__decap_3
XFILLER_0_15_19 VGND VPWR VPWR VGND sky130_ef_sc_hd__decap_12
XFILLER_0_31_18 VGND VGND VPWR VPWR sky130_fd_sc_hd__decap_6
XFILLER_0_40_109 VGND VPWR VPWR VGND sky130_ef_sc_hd__decap_12
XFILLER_0_0_217 VGND VGND VPWR VPWR sky130_fd_sc_hd__decap_3
XFILLER_0_48_209 VGND VPWR VPWR VGND sky130_ef_sc_hd__decap_12
XTAP_TAPCELL_ROW_44_351 VGND VPWR sky130_fd_sc_hd__tapvpwrvgnd_1
X_1021_ net73 net34 VGND VGND VPWR VPWR _0529_ sky130_fd_sc_hd__and2b_1
XTAP_TAPCELL_ROW_36_307 VGND VPWR sky130_fd_sc_hd__tapvpwrvgnd_1
XFILLER_0_8_317 VGND VGND VPWR VPWR sky130_fd_sc_hd__decap_3
XFILLER_0_12_301 VGND VGND VPWR VPWR sky130_fd_sc_hd__decap_6
X_0805_ _0271_ _0322_ _0342_ _0276_ VGND VGND VPWR VPWR _0343_ sky130_fd_sc_hd__a31o_1
XFILLER_0_21_51 VGND VGND VPWR VPWR sky130_fd_sc_hd__decap_4
XFILLER_0_21_73 VGND VGND VPWR VPWR sky130_fd_sc_hd__fill_1
X_0667_ net48 net9 VGND VGND VPWR VPWR _0216_ sky130_fd_sc_hd__and2b_1
X_0598_ net67 net28 VGND VGND VPWR VPWR _0147_ sky130_fd_sc_hd__and2b_1
X_0736_ net22 _0281_ _0282_ VGND VGND VPWR VPWR _0283_ sky130_fd_sc_hd__a21oi_1
XFILLER_0_15_194 VGND VGND VPWR VPWR sky130_fd_sc_hd__decap_8
Xhold30 manchester_baby_instance.CIRCUIT_0.IR.q\[2\] VGND VGND VPWR VPWR net103 sky130_fd_sc_hd__dlygate4sd3_1
XFILLER_0_30_197 VGND VGND VPWR VPWR sky130_fd_sc_hd__fill_2
XFILLER_0_30_186 VGND VGND VPWR VPWR sky130_fd_sc_hd__decap_8
XFILLER_0_30_175 VGND VGND VPWR VPWR sky130_fd_sc_hd__fill_2
XFILLER_0_26_29 VGND VPWR VPWR VGND sky130_ef_sc_hd__decap_12
XTAP_TAPCELL_ROW_41_332 VGND VPWR sky130_fd_sc_hd__tapvpwrvgnd_1
XFILLER_0_38_275 VGND VPWR VPWR VGND sky130_ef_sc_hd__decap_12
XFILLER_0_38_253 VGND VGND VPWR VPWR sky130_fd_sc_hd__fill_2
XFILLER_0_21_153 VGND VPWR VPWR VGND sky130_ef_sc_hd__decap_12
XFILLER_0_16_51 VGND VGND VPWR VPWR sky130_fd_sc_hd__decap_4
X_1004_ manchester_baby_instance.CIRCUIT_0.ARITH_38.dataB\[1\] _0494_ _0517_ _0492_
+ VGND VGND VPWR VPWR _0051_ sky130_fd_sc_hd__a22o_1
XFILLER_0_8_114 VGND VGND VPWR VPWR sky130_fd_sc_hd__decap_3
XFILLER_0_44_289 VGND VPWR VPWR VGND sky130_ef_sc_hd__decap_12
XFILLER_0_44_245 VGND VGND VPWR VPWR sky130_fd_sc_hd__decap_6
XFILLER_0_32_94 VGND VGND VPWR VPWR sky130_fd_sc_hd__decap_4
X_0719_ _0265_ VGND VGND VPWR VPWR _0267_ sky130_fd_sc_hd__clkbuf_4
XFILLER_0_35_223 VGND VGND VPWR VPWR sky130_fd_sc_hd__fill_1
Xoutput64 net64 VGND VGND VPWR VPWR ram_data_o[31] sky130_fd_sc_hd__clkbuf_4
Xoutput42 net42 VGND VGND VPWR VPWR ram_data_o[11] sky130_fd_sc_hd__buf_2
Xoutput53 net53 VGND VGND VPWR VPWR ram_data_o[21] sky130_fd_sc_hd__buf_2
XFILLER_0_37_39 VGND VGND VPWR VPWR sky130_fd_sc_hd__fill_1
XFILLER_0_41_215 VGND VGND VPWR VPWR sky130_fd_sc_hd__decap_8
XFILLER_0_27_50 VGND VGND VPWR VPWR sky130_fd_sc_hd__decap_3
XFILLER_0_43_93 VGND VPWR VPWR VGND sky130_ef_sc_hd__decap_12
XFILLER_0_17_223 VGND VGND VPWR VPWR sky130_fd_sc_hd__fill_1
XFILLER_0_17_278 VGND VGND VPWR VPWR sky130_fd_sc_hd__fill_2
XFILLER_0_17_289 VGND VPWR VPWR VGND sky130_ef_sc_hd__decap_12
XFILLER_0_32_248 VGND VGND VPWR VPWR sky130_fd_sc_hd__fill_1
XFILLER_0_7_93 VGND VPWR VPWR VGND sky130_ef_sc_hd__decap_12
XPHY_EDGE_ROW_37_Left_87 VGND VGND VPWR VPWR sky130_fd_sc_hd__decap_3
XFILLER_0_2_109 VGND VPWR VPWR VGND sky130_ef_sc_hd__decap_12
XFILLER_0_48_27 VGND VGND VPWR VPWR sky130_fd_sc_hd__fill_1
XFILLER_0_31_281 VGND VPWR VPWR VGND sky130_ef_sc_hd__decap_12
XFILLER_0_46_307 VGND VGND VPWR VPWR sky130_fd_sc_hd__fill_1
X_0984_ _0464_ _0496_ _0497_ _0499_ VGND VGND VPWR VPWR _0500_ sky130_fd_sc_hd__a211o_1
XFILLER_0_13_74 VGND VPWR VPWR VGND sky130_ef_sc_hd__decap_12
XTAP_TAPCELL_ROW_14_184 VGND VPWR sky130_fd_sc_hd__tapvpwrvgnd_1
XFILLER_0_49_167 VGND VGND VPWR VPWR sky130_fd_sc_hd__fill_1
XFILLER_0_13_281 VGND VPWR VPWR VGND sky130_ef_sc_hd__decap_12
XFILLER_0_34_29 VGND VGND VPWR VPWR sky130_fd_sc_hd__fill_2
XFILLER_0_28_307 VGND VGND VPWR VPWR sky130_fd_sc_hd__fill_1
XFILLER_0_11_207 VGND VGND VPWR VPWR sky130_fd_sc_hd__decap_6
XTAP_TAPCELL_ROW_19_210 VGND VPWR sky130_fd_sc_hd__tapvpwrvgnd_1
X_0967_ manchester_baby_instance.CIRCUIT_0.ARITH_38.dataB\[3\] _0479_ _0483_ VGND
+ VGND VPWR VPWR _0484_ sky130_fd_sc_hd__a21oi_1
XFILLER_0_40_83 VGND VGND VPWR VPWR sky130_fd_sc_hd__fill_1
XFILLER_0_6_289 VGND VPWR VPWR VGND sky130_ef_sc_hd__decap_12
XFILLER_0_6_245 VGND VGND VPWR VPWR sky130_fd_sc_hd__decap_6
XFILLER_0_49_81 VGND VGND VPWR VPWR sky130_fd_sc_hd__decap_3
XFILLER_0_10_240 VGND VPWR VPWR VGND sky130_ef_sc_hd__decap_12
XPHY_EDGE_ROW_12_Right_12 VGND VGND VPWR VPWR sky130_fd_sc_hd__decap_3
X_0898_ _0155_ _0160_ _0422_ VGND VGND VPWR VPWR _0423_ sky130_fd_sc_hd__a21o_1
XFILLER_0_4_83 VGND VGND VPWR VPWR sky130_fd_sc_hd__fill_1
XPHY_EDGE_ROW_21_Right_21 VGND VGND VPWR VPWR sky130_fd_sc_hd__decap_3
XTAP_TAPCELL_ROW_33_290 VGND VPWR sky130_fd_sc_hd__tapvpwrvgnd_1
XTAP_TAPCELL_ROW_25_246 VGND VPWR sky130_fd_sc_hd__tapvpwrvgnd_1
XFILLER_0_45_181 VGND VPWR VPWR VGND sky130_ef_sc_hd__decap_12
XPHY_EDGE_ROW_30_Right_30 VGND VGND VPWR VPWR sky130_fd_sc_hd__decap_3
XFILLER_0_45_39 VGND VPWR VPWR VGND sky130_ef_sc_hd__decap_12
X_0752_ _0271_ _0295_ _0296_ VGND VGND VPWR VPWR _0297_ sky130_fd_sc_hd__and3_1
X_0821_ _0356_ VGND VGND VPWR VPWR _0073_ sky130_fd_sc_hd__clkbuf_1
XFILLER_0_3_237 VGND VPWR VPWR VGND sky130_ef_sc_hd__decap_12
XFILLER_0_10_97 VGND VPWR VPWR VGND sky130_ef_sc_hd__decap_12
X_0683_ _0199_ _0202_ _0212_ _0229_ _0231_ VGND VGND VPWR VPWR _0232_ sky130_fd_sc_hd__o221a_1
XPHY_EDGE_ROW_24_Left_74 VGND VGND VPWR VPWR sky130_fd_sc_hd__decap_3
XFILLER_0_36_7 VGND VPWR VPWR VGND sky130_ef_sc_hd__decap_12
XFILLER_0_19_51 VGND VGND VPWR VPWR sky130_fd_sc_hd__decap_4
XFILLER_0_19_73 VGND VGND VPWR VPWR sky130_fd_sc_hd__decap_4
X_1097_ clknet_2_3__leaf_clock _0050_ _0001_ VGND VGND VPWR VPWR manchester_baby_instance.CIRCUIT_0.ARITH_38.dataB\[0\]
+ sky130_fd_sc_hd__dfrtp_1
XFILLER_0_19_104 VGND VGND VPWR VPWR sky130_fd_sc_hd__decap_8
XTAP_TAPCELL_ROW_22_227 VGND VPWR sky130_fd_sc_hd__tapvpwrvgnd_1
XFILLER_0_42_184 VGND VGND VPWR VPWR sky130_fd_sc_hd__decap_4
XFILLER_0_34_118 VGND VGND VPWR VPWR sky130_fd_sc_hd__decap_3
XTAP_TAPCELL_ROW_30_271 VGND VPWR sky130_fd_sc_hd__tapvpwrvgnd_1
X_1020_ _0528_ VGND VGND VPWR VPWR manchester_baby_instance.CIRCUIT_0.MEMORY_44.s_nextCounterValue\[2\]
+ sky130_fd_sc_hd__clkbuf_1
XTAP_TAPCELL_ROW_36_308 VGND VPWR sky130_fd_sc_hd__tapvpwrvgnd_1
XTAP_TAPCELL_ROW_44_352 VGND VPWR sky130_fd_sc_hd__tapvpwrvgnd_1
XFILLER_0_8_307 VGND VGND VPWR VPWR sky130_fd_sc_hd__fill_1
X_0804_ _0218_ _0224_ _0320_ _0229_ _0207_ VGND VGND VPWR VPWR _0342_ sky130_fd_sc_hd__o311ai_1
X_0735_ net21 net22 _0134_ _0274_ VGND VGND VPWR VPWR _0282_ sky130_fd_sc_hd__o31ai_2
X_0597_ _0141_ _0145_ VGND VGND VPWR VPWR _0146_ sky130_fd_sc_hd__nand2_1
X_0666_ _0213_ _0214_ VGND VGND VPWR VPWR _0215_ sky130_fd_sc_hd__nand2_1
X_1149_ clknet_2_1__leaf_clock _0098_ VGND VGND VPWR VPWR manchester_baby_instance.BASE_0.s_countReg\[0\]
+ sky130_fd_sc_hd__dfxtp_1
XFILLER_0_1_51 VGND VGND VPWR VPWR sky130_fd_sc_hd__decap_4
XFILLER_0_30_110 VGND VGND VPWR VPWR sky130_fd_sc_hd__fill_1
XFILLER_0_15_151 VGND VGND VPWR VPWR sky130_fd_sc_hd__fill_1
Xhold31 net63 VGND VGND VPWR VPWR net104 sky130_fd_sc_hd__dlygate4sd3_1
Xhold20 net69 VGND VGND VPWR VPWR net93 sky130_fd_sc_hd__dlygate4sd3_1
XFILLER_0_26_19 VGND VGND VPWR VPWR sky130_fd_sc_hd__decap_8
XFILLER_0_42_29 VGND VPWR VPWR VGND sky130_ef_sc_hd__decap_12
XFILLER_0_38_232 VGND VGND VPWR VPWR sky130_fd_sc_hd__decap_8
XTAP_TAPCELL_ROW_41_333 VGND VPWR sky130_fd_sc_hd__tapvpwrvgnd_1
XFILLER_0_38_287 VGND VPWR VPWR VGND sky130_ef_sc_hd__decap_12
XFILLER_0_6_29 VGND VPWR VPWR VGND sky130_ef_sc_hd__decap_12
XFILLER_0_21_165 VGND VGND VPWR VPWR sky130_fd_sc_hd__decap_3
X_1003_ _0487_ _0502_ _0511_ _0516_ VGND VGND VPWR VPWR _0517_ sky130_fd_sc_hd__a31o_1
XFILLER_0_16_85 VGND VPWR VPWR VGND sky130_ef_sc_hd__decap_12
XFILLER_0_29_221 VGND VGND VPWR VPWR sky130_fd_sc_hd__decap_3
X_0718_ _0118_ _0264_ _0266_ VGND VGND VPWR VPWR _0086_ sky130_fd_sc_hd__a21oi_1
XPHY_EDGE_ROW_6_Right_6 VGND VGND VPWR VPWR sky130_fd_sc_hd__decap_3
X_0649_ net54 net15 VGND VGND VPWR VPWR _0198_ sky130_fd_sc_hd__or2b_1
XPHY_EDGE_ROW_11_Left_61 VGND VGND VPWR VPWR sky130_fd_sc_hd__decap_3
XFILLER_0_35_235 VGND VGND VPWR VPWR sky130_fd_sc_hd__decap_8
XFILLER_0_7_181 VGND VPWR VPWR VGND sky130_ef_sc_hd__decap_12
Xoutput43 net43 VGND VGND VPWR VPWR ram_data_o[12] sky130_fd_sc_hd__buf_2
Xoutput54 net54 VGND VGND VPWR VPWR ram_data_o[22] sky130_fd_sc_hd__buf_2
Xoutput65 net65 VGND VGND VPWR VPWR ram_data_o[3] sky130_fd_sc_hd__buf_2
XFILLER_0_49_305 VGND VGND VPWR VPWR sky130_fd_sc_hd__decap_3
XFILLER_0_11_6 VGND VPWR VPWR VGND sky130_ef_sc_hd__decap_12
XFILLER_0_40_282 VGND VPWR VPWR VGND sky130_ef_sc_hd__decap_12
XFILLER_0_4_195 VGND VGND VPWR VPWR sky130_fd_sc_hd__fill_1
XFILLER_0_31_293 VGND VPWR VPWR VGND sky130_ef_sc_hd__decap_12
XTAP_TAPCELL_ROW_8_150 VGND VPWR sky130_fd_sc_hd__tapvpwrvgnd_1
X_0983_ net26 _0477_ _0498_ _0482_ VGND VGND VPWR VPWR _0499_ sky130_fd_sc_hd__a22o_1
XFILLER_0_13_86 VGND VPWR VPWR VGND sky130_ef_sc_hd__decap_12
XTAP_TAPCELL_ROW_14_185 VGND VPWR sky130_fd_sc_hd__tapvpwrvgnd_1
XFILLER_0_38_83 VGND VGND VPWR VPWR sky130_fd_sc_hd__fill_1
XFILLER_0_49_113 VGND VGND VPWR VPWR sky130_fd_sc_hd__decap_8
XFILLER_0_13_293 VGND VPWR VPWR VGND sky130_ef_sc_hd__decap_12
XFILLER_0_34_19 VGND VGND VPWR VPWR sky130_fd_sc_hd__decap_8
XTAP_TAPCELL_ROW_11_166 VGND VPWR sky130_fd_sc_hd__tapvpwrvgnd_1
XTAP_TAPCELL_ROW_19_211 VGND VPWR sky130_fd_sc_hd__tapvpwrvgnd_1
XFILLER_0_24_85 VGND VGND VPWR VPWR sky130_fd_sc_hd__fill_1
XFILLER_0_42_300 VGND VGND VPWR VPWR sky130_fd_sc_hd__decap_8
X_0966_ manchester_baby_instance.CIRCUIT_0.MEMORY_44.countValue\[2\] manchester_baby_instance.CIRCUIT_0.MEMORY_44.countValue\[1\]
+ manchester_baby_instance.CIRCUIT_0.MEMORY_44.countValue\[0\] VGND VGND VPWR VPWR
+ _0483_ sky130_fd_sc_hd__or3_1
X_0897_ _0421_ _0162_ VGND VGND VPWR VPWR _0422_ sky130_fd_sc_hd__nand2_1
XTAP_TAPCELL_ROW_33_291 VGND VPWR sky130_fd_sc_hd__tapvpwrvgnd_1
XTAP_TAPCELL_ROW_25_247 VGND VPWR sky130_fd_sc_hd__tapvpwrvgnd_1
XFILLER_0_45_193 VGND VPWR VPWR VGND sky130_ef_sc_hd__decap_12
XFILLER_0_29_19 VGND VPWR VPWR VGND sky130_ef_sc_hd__decap_12
XFILLER_0_36_193 VGND VGND VPWR VPWR sky130_fd_sc_hd__decap_3
X_0751_ _0234_ _0235_ _0294_ VGND VGND VPWR VPWR _0296_ sky130_fd_sc_hd__or3_1
XFILLER_0_3_249 VGND VPWR VPWR VGND sky130_ef_sc_hd__decap_12
XFILLER_0_3_205 VGND VPWR VPWR VGND sky130_ef_sc_hd__decap_12
XFILLER_0_9_18 VGND VPWR VPWR VGND sky130_ef_sc_hd__decap_12
X_0820_ net49 _0355_ _0265_ VGND VGND VPWR VPWR _0356_ sky130_fd_sc_hd__mux2_1
X_0682_ _0204_ _0210_ _0230_ VGND VGND VPWR VPWR _0231_ sky130_fd_sc_hd__or3_1
X_1096_ clknet_2_1__leaf_clock _0000_ VGND VGND VPWR VPWR manchester_baby_instance.CIRCUIT_0.Acc.tick
+ sky130_fd_sc_hd__dfxtp_2
XFILLER_0_29_7 VGND VPWR VPWR VGND sky130_ef_sc_hd__decap_12
XTAP_TAPCELL_ROW_22_228 VGND VPWR sky130_fd_sc_hd__tapvpwrvgnd_1
XFILLER_0_42_141 VGND VGND VPWR VPWR sky130_fd_sc_hd__fill_2
X_0949_ net23 manchester_baby_instance.CIRCUIT_0.ARITH_38.dataB\[2\] VGND VGND VPWR
+ VPWR _0466_ sky130_fd_sc_hd__or2_1
XTAP_TAPCELL_ROW_30_272 VGND VPWR sky130_fd_sc_hd__tapvpwrvgnd_1
XPHY_EDGE_ROW_41_Left_91 VGND VGND VPWR VPWR sky130_fd_sc_hd__decap_3
XFILLER_0_25_108 VGND VGND VPWR VPWR sky130_fd_sc_hd__decap_4
XFILLER_0_25_119 VGND VGND VPWR VPWR sky130_fd_sc_hd__decap_8
XFILLER_0_16_119 VGND VPWR VPWR VGND sky130_ef_sc_hd__decap_12
X_0803_ _0268_ _0337_ _0340_ VGND VGND VPWR VPWR _0341_ sky130_fd_sc_hd__and3_1
X_0665_ net47 net8 VGND VGND VPWR VPWR _0214_ sky130_fd_sc_hd__or2b_1
X_0734_ net21 _0134_ VGND VGND VPWR VPWR _0281_ sky130_fd_sc_hd__or2_1
X_0596_ _0142_ _0143_ _0144_ VGND VGND VPWR VPWR _0145_ sky130_fd_sc_hd__a21o_1
XFILLER_0_46_83 VGND VGND VPWR VPWR sky130_fd_sc_hd__fill_1
X_1148_ clknet_2_1__leaf_clock _0097_ VGND VGND VPWR VPWR manchester_baby_instance.BASE_1.s_counterValue
+ sky130_fd_sc_hd__dfxtp_1
X_1079_ _0533_ VGND VGND VPWR VPWR _0043_ sky130_fd_sc_hd__inv_2
XFILLER_0_15_130 VGND VGND VPWR VPWR sky130_fd_sc_hd__fill_1
XFILLER_0_30_166 VGND VGND VPWR VPWR sky130_fd_sc_hd__decap_6
Xhold10 manchester_baby_instance.BASE_1.s_counterValue VGND VGND VPWR VPWR net83 sky130_fd_sc_hd__dlygate4sd3_1
Xhold32 manchester_baby_instance.CIRCUIT_0.IR.q\[4\] VGND VGND VPWR VPWR net105 sky130_fd_sc_hd__dlygate4sd3_1
Xhold21 net60 VGND VGND VPWR VPWR net94 sky130_fd_sc_hd__dlygate4sd3_1
XTAP_TAPCELL_ROW_41_334 VGND VPWR sky130_fd_sc_hd__tapvpwrvgnd_1
XFILLER_0_38_299 VGND VGND VPWR VPWR sky130_fd_sc_hd__decap_8
XFILLER_0_21_111 VGND VGND VPWR VPWR sky130_fd_sc_hd__fill_1
XFILLER_0_21_133 VGND VGND VPWR VPWR sky130_fd_sc_hd__decap_6
X_1002_ net12 _0477_ _0513_ _0481_ _0515_ VGND VGND VPWR VPWR _0516_ sky130_fd_sc_hd__a221o_1
XFILLER_0_16_97 VGND VPWR VPWR VGND sky130_ef_sc_hd__decap_12
XFILLER_0_32_63 VGND VGND VPWR VPWR sky130_fd_sc_hd__decap_3
XFILLER_0_32_41 VGND VPWR VPWR VGND sky130_ef_sc_hd__decap_12
X_0717_ net64 _0265_ VGND VGND VPWR VPWR _0266_ sky130_fd_sc_hd__nor2_1
XFILLER_0_12_111 VGND VGND VPWR VPWR sky130_fd_sc_hd__fill_1
X_0648_ _0182_ _0189_ _0192_ _0196_ VGND VGND VPWR VPWR _0197_ sky130_fd_sc_hd__o211a_1
X_0579_ net7 net6 VGND VGND VPWR VPWR _0128_ sky130_fd_sc_hd__or2_1
XFILLER_0_7_193 VGND VPWR VPWR VGND sky130_ef_sc_hd__decap_12
XFILLER_0_37_19 VGND VPWR VPWR VGND sky130_ef_sc_hd__decap_12
Xoutput55 net55 VGND VGND VPWR VPWR ram_data_o[23] sky130_fd_sc_hd__buf_2
Xoutput44 net44 VGND VGND VPWR VPWR ram_data_o[13] sky130_fd_sc_hd__buf_2
Xoutput66 net66 VGND VGND VPWR VPWR ram_data_o[4] sky130_fd_sc_hd__buf_2
XFILLER_0_26_269 VGND VGND VPWR VPWR sky130_fd_sc_hd__fill_1
XFILLER_0_27_96 VGND VGND VPWR VPWR sky130_fd_sc_hd__decap_8
XFILLER_0_49_317 VGND VGND VPWR VPWR sky130_fd_sc_hd__decap_3
XFILLER_0_43_51 VGND VGND VPWR VPWR sky130_fd_sc_hd__decap_4
XFILLER_0_4_141 VGND VPWR VPWR VGND sky130_ef_sc_hd__decap_12
XFILLER_0_40_294 VGND VPWR VPWR VGND sky130_ef_sc_hd__decap_12
XFILLER_0_7_51 VGND VGND VPWR VPWR sky130_fd_sc_hd__decap_4
XFILLER_0_48_29 VGND VPWR VPWR VGND sky130_ef_sc_hd__decap_12
XTAP_TAPCELL_ROW_8_151 VGND VPWR sky130_fd_sc_hd__tapvpwrvgnd_1
XFILLER_0_46_309 VGND VGND VPWR VPWR sky130_fd_sc_hd__decap_8
X_0982_ manchester_baby_instance.CIRCUIT_0.ARITH_38.dataB\[3\] _0480_ VGND VGND VPWR
+ VPWR _0498_ sky130_fd_sc_hd__or2_1
XFILLER_0_13_54 VGND VGND VPWR VPWR sky130_fd_sc_hd__fill_2
XFILLER_0_13_98 VGND VGND VPWR VPWR sky130_fd_sc_hd__decap_4
XFILLER_0_14_217 VGND VGND VPWR VPWR sky130_fd_sc_hd__decap_4
XFILLER_0_14_228 VGND VGND VPWR VPWR sky130_fd_sc_hd__decap_8
XTAP_TAPCELL_ROW_14_186 VGND VPWR sky130_fd_sc_hd__tapvpwrvgnd_1
XFILLER_0_1_111 VGND VGND VPWR VPWR sky130_fd_sc_hd__fill_1
XFILLER_0_22_250 VGND VGND VPWR VPWR sky130_fd_sc_hd__fill_2